# generated using pymatgen
data_Y8Sc8Ga8Pd8CO
_symmetry_space_group_name_H-M   Pmm2
_cell_length_a   7.06732000
_cell_length_b   9.48206000
_cell_length_c   27.39200000
_cell_angle_alpha   90.00000000
_cell_angle_beta   90.00000000
_cell_angle_gamma   90.00000000
_symmetry_Int_Tables_number   25
_chemical_formula_structural   Y8Sc8Ga8Pd8CO
_chemical_formula_sum   'Y8 Sc8 Ga8 Pd8 C1 O1'
_cell_volume   1835.61331043
_cell_formula_units_Z   1
loop_
 _symmetry_equiv_pos_site_id
 _symmetry_equiv_pos_as_xyz
  1  'x, y, z'
  2  '-x, -y, z'
  3  '-x, y, z'
  4  'x, -y, z'
loop_
 _atom_site_type_symbol
 _atom_site_label
 _atom_site_symmetry_multiplicity
 _atom_site_fract_x
 _atom_site_fract_y
 _atom_site_fract_z
 _atom_site_occupancy
  Y  Y0  1  0.00000000  0.00000000  0.14218000  1.0
  Y  Y1  1  0.00000000  0.00000000  0.95502000  1.0
  Y  Y2  1  0.00000000  0.50000000  0.14106000  1.0
  Y  Y3  1  0.00000000  0.50000000  0.95502000  1.0
  Y  Y4  1  0.50000000  0.00000000  0.14290000  1.0
  Y  Y5  1  0.50000000  0.00000000  0.95502000  1.0
  Y  Y6  1  0.50000000  0.50000000  0.14091000  1.0
  Y  Y7  1  0.50000000  0.50000000  0.95502000  1.0
  Sc  Sc8  2  0.00000000  0.25000000  0.86507000  1.0
  Sc  Sc9  2  0.00000000  0.25066000  0.04393000  1.0
  Sc  Sc10  2  0.50000000  0.25000000  0.86507000  1.0
  Sc  Sc11  2  0.50000000  0.25016000  0.04413000  1.0
  Ga  Ga12  2  0.25000000  0.00000000  0.86507000  1.0
  Ga  Ga13  2  0.25000000  0.50000000  0.86507000  1.0
  Ga  Ga14  2  0.25036000  0.50000000  0.05107000  1.0
  Ga  Ga15  2  0.25045000  0.00000000  0.05119000  1.0
  Pd  Pd16  4  0.25000000  0.25000000  0.95502000  1.0
  Pd  Pd17  4  0.25087000  0.25088000  0.11982000  1.0
  C  C18  1  0.00000000  0.00000000  0.23312000  1.0
  O  O19  1  0.00000000  0.00000000  0.27516000  1.0
