# generated using pymatgen
data_Ta4Ga4Ni8CO
_symmetry_space_group_name_H-M   P4mm
_cell_length_a   5.98793000
_cell_length_b   5.98793000
_cell_length_c   24.49090000
_cell_angle_alpha   90.00000000
_cell_angle_beta   90.00000000
_cell_angle_gamma   90.00000000
_symmetry_Int_Tables_number   99
_chemical_formula_structural   Ta4Ga4Ni8CO
_chemical_formula_sum   'Ta4 Ga4 Ni8 C1 O1'
_cell_volume   878.12870600
_cell_formula_units_Z   1
loop_
 _symmetry_equiv_pos_site_id
 _symmetry_equiv_pos_as_xyz
  1  'x, y, z'
  2  '-y, x, z'
  3  '-x, -y, z'
  4  'y, -x, z'
  5  '-x, y, z'
  6  'y, x, z'
  7  'x, -y, z'
  8  '-y, -x, z'
loop_
 _atom_site_type_symbol
 _atom_site_label
 _atom_site_symmetry_multiplicity
 _atom_site_fract_x
 _atom_site_fract_y
 _atom_site_fract_z
 _atom_site_occupancy
  Ta  Ta0  2  0.00000000  0.50000000  0.96944000  1.0
  Ta  Ta1  1  0.00000000  0.00000000  0.09169000  1.0
  Ta  Ta2  1  0.50000000  0.50000000  0.09169000  1.0
  Ga  Ga3  2  0.00000000  0.50000000  0.09169000  1.0
  Ga  Ga4  1  0.00000000  0.00000000  0.96944000  1.0
  Ga  Ga5  1  0.50000000  0.50000000  0.96944000  1.0
  Ni  Ni6  4  0.25000000  0.25000000  0.03056000  1.0
  Ni  Ni7  4  0.25000000  0.25000000  0.90831000  1.0
  C  C8  1  0.00000000  0.00000000  0.16927000  1.0
  O  O9  1  0.00000000  0.00000000  0.21622000  1.0
