# generated using pymatgen
data_Li4Mg4Al4Pd4C
_symmetry_space_group_name_H-M   'P 1'
_cell_length_a   6.28130000
_cell_length_b   6.28130000
_cell_length_c   24.71100000
_cell_angle_alpha   90.00000000
_cell_angle_beta   90.00000000
_cell_angle_gamma   90.00000000
_symmetry_Int_Tables_number   1
_chemical_formula_structural   Li4Mg4Al4Pd4C
_chemical_formula_sum   'Li4 Mg4 Al4 Pd4 C1'
_cell_volume   974.96582537
_cell_formula_units_Z   1
loop_
 _symmetry_equiv_pos_site_id
 _symmetry_equiv_pos_as_xyz
  1  'x, y, z'
loop_
 _atom_site_type_symbol
 _atom_site_label
 _atom_site_symmetry_multiplicity
 _atom_site_fract_x
 _atom_site_fract_y
 _atom_site_fract_z
 _atom_site_occupancy
  Li  Li0  1  0.24912000  0.75088000  0.97299000  1
  Li  Li1  1  0.75000000  0.74998000  0.09532000  1
  Li  Li2  1  0.25002000  0.25000000  0.09532000  1
  Li  Li3  1  0.75040500  0.24959500  0.95913000  1
  Mg  Mg4  1  0.49566000  0.99460000  0.89607000  1
  Mg  Mg5  1  0.00001000  0.99999000  0.03177000  1
  Mg  Mg6  1  0.50001000  0.49999000  0.03177000  1
  Mg  Mg7  1  0.00540000  0.50434000  0.89607000  1
  Al  Al8  1  0.03433000  0.96567000  0.90543000  1
  Al  Al9  1  0.50000000  0.99998000  0.03177000  1
  Al  Al10  1  0.00002000  0.50000000  0.03177000  1
  Al  Al11  1  0.46490000  0.53510000  0.90555000  1
  Pd  Pd12  1  0.25009000  0.25001000  0.96680000  1
  Pd  Pd13  1  0.75001000  0.24999000  0.09532000  1
  Pd  Pd14  1  0.25001000  0.74999000  0.09532000  1
  Pd  Pd15  1  0.74999000  0.74991000  0.96680000  1
  C  C16  1  0.24953000  0.75047000  0.88547000  1
