# generated using pymatgen
data_Nb4Ru12CO
_symmetry_space_group_name_H-M   Pm
_cell_length_a   5.52327000
_cell_length_b   7.81108000
_cell_length_c   24.14240000
_cell_angle_alpha   90.00000000
_cell_angle_beta   90.00000000
_cell_angle_gamma   90.00000000
_symmetry_Int_Tables_number   6
_chemical_formula_structural   Nb4Ru12CO
_chemical_formula_sum   'Nb4 Ru12 C1 O1'
_cell_volume   1041.56841298
_cell_formula_units_Z   1
loop_
 _symmetry_equiv_pos_site_id
 _symmetry_equiv_pos_as_xyz
  1  'x, y, z'
  2  'x, -y, z'
loop_
 _atom_site_type_symbol
 _atom_site_label
 _atom_site_symmetry_multiplicity
 _atom_site_fract_x
 _atom_site_fract_y
 _atom_site_fract_z
 _atom_site_occupancy
  Nb  Nb0  2  0.00000000  0.25000000  0.08579000  1.0
  Nb  Nb1  2  0.50068000  0.25389000  0.97422000  1.0
  Ru  Ru2  2  0.00110000  0.24869000  0.97604000  1.0
  Ru  Ru3  2  0.50000000  0.25000000  0.08579000  1.0
  Ru  Ru4  1  0.24098000  0.50000000  0.92234000  1.0
  Ru  Ru5  1  0.25000000  0.00000000  0.02860000  1.0
  Ru  Ru6  1  0.25000000  0.50000000  0.02860000  1.0
  Ru  Ru7  1  0.25215000  0.00000000  0.92232000  1.0
  Ru  Ru8  1  0.74288000  0.50000000  0.91713000  1.0
  Ru  Ru9  1  0.75000000  0.00000000  0.02860000  1.0
  Ru  Ru10  1  0.75000000  0.50000000  0.02860000  1.0
  Ru  Ru11  1  0.75731000  0.00000000  0.92288000  1.0
  C  C12  1  0.74739000  0.50000000  0.83798000  1.0
  O  O13  1  0.75052000  0.50000000  0.78988000  1.0
