# generated using pymatgen
data_LiGa2Pd
_symmetry_space_group_name_H-M   'P 1'
_cell_length_a   4.41551500
_cell_length_b   6.24448000
_cell_length_c   26.62330000
_cell_angle_alpha   90.00000000
_cell_angle_beta   90.00000000
_cell_angle_gamma   90.00000000
_symmetry_Int_Tables_number   1
_chemical_formula_structural   LiGa2Pd
_chemical_formula_sum   'Li4 Ga8 Pd4'
_cell_volume   734.07347132
_cell_formula_units_Z   4
loop_
 _symmetry_equiv_pos_site_id
 _symmetry_equiv_pos_as_xyz
  1  'x, y, z'
loop_
 _atom_site_type_symbol
 _atom_site_label
 _atom_site_symmetry_multiplicity
 _atom_site_fract_x
 _atom_site_fract_y
 _atom_site_fract_z
 _atom_site_occupancy
  Li  Li0  1  0.00000000  0.00000000  0.12439000  1.0
  Li  Li1  1  0.50000000  0.50000000  0.04146000  1.0
  Li  Li2  1  0.00000000  0.00000000  0.95777500  1.0
  Li  Li3  1  0.50000000  0.50000000  0.86048500  1.0
  Ga  Ga4  1  0.00000000  0.75000000  0.04146000  1.0
  Ga  Ga5  1  0.00000000  0.25000000  0.04146000  1.0
  Ga  Ga6  1  0.50000000  0.25000000  0.12439000  1.0
  Ga  Ga7  1  0.50000000  0.75000000  0.12439000  1.0
  Ga  Ga8  1  0.00000000  0.75609000  0.86755000  1.0
  Ga  Ga9  1  0.00000000  0.24391000  0.86755000  1.0
  Ga  Ga10  1  0.50000000  0.26240500  0.95461000  1.0
  Ga  Ga11  1  0.50000000  0.73759500  0.95461000  1.0
  Pd  Pd12  1  0.50000000  0.00000000  0.04146000  1.0
  Pd  Pd13  1  0.00000000  0.50000000  0.12439000  1.0
  Pd  Pd14  1  0.50000000  0.00000000  0.88049000  1.0
  Pd  Pd15  1  0.00000000  0.50000000  0.96181000  1.0
