# generated using pymatgen
data_Li8In8Ir8Pd8CO
_symmetry_space_group_name_H-M   P1
_cell_length_a   6.33559000
_cell_length_b   8.95988000
_cell_length_c   26.71990000
_cell_angle_alpha   90.00000000
_cell_angle_beta   90.00000000
_cell_angle_gamma   90.00000000
_symmetry_Int_Tables_number   1
_chemical_formula_structural   Li8In8Ir8Pd8CO
_chemical_formula_sum   'Li8 In8 Ir8 Pd8 C1 O1'
_cell_volume   1516.78521356
_cell_formula_units_Z   1
loop_
 _symmetry_equiv_pos_site_id
 _symmetry_equiv_pos_as_xyz
  1  'x, y, z'
loop_
 _atom_site_type_symbol
 _atom_site_label
 _atom_site_symmetry_multiplicity
 _atom_site_fract_x
 _atom_site_fract_y
 _atom_site_fract_z
 _atom_site_occupancy
  Li  Li0  1  0.00000000  0.25000000  0.95808000  1.0
  Li  Li1  1  0.00000000  0.75000000  0.95808000  1.0
  Li  Li2  1  0.00060000  0.24763000  0.13363000  1.0
  Li  Li3  1  0.00064000  0.75175000  0.13371000  1.0
  Li  Li4  1  0.49536000  0.50003000  0.04140000  1.0
  Li  Li5  1  0.50000000  0.00000000  0.87425000  1.0
  Li  Li6  1  0.50000000  0.50000000  0.87425000  1.0
  Li  Li7  1  0.50334000  0.00002000  0.03882000  1.0
  In  In8  1  0.00000000  0.00000000  0.87425000  1.0
  In  In9  1  0.00000000  0.50000000  0.87425000  1.0
  In  In10  1  0.00066000  0.49999000  0.03945000  1.0
  In  In11  1  0.49343000  0.25528000  0.13326000  1.0
  In  In12  1  0.49358000  0.74450000  0.13321000  1.0
  In  In13  1  0.50000000  0.25000000  0.95808000  1.0
  In  In14  1  0.50000000  0.75000000  0.95808000  1.0
  In  In15  1  0.99556000  0.00025000  0.04136000  1.0
  Ir  Ir16  1  0.24835000  0.99984000  0.12758000  1.0
  Ir  Ir17  1  0.25000000  0.00000000  0.95808000  1.0
  Pd  Pd18  1  0.25000000  0.25000000  0.87425000  1.0
  Ir  Ir19  1  0.25000000  0.50000000  0.95808000  1.0
  Pd  Pd20  1  0.25000000  0.75000000  0.87425000  1.0
  Ir  Ir21  1  0.25149000  0.49984000  0.11968000  1.0
  Pd  Pd22  1  0.25259000  0.75592000  0.04384000  1.0
  Pd  Pd23  1  0.25272000  0.24405000  0.04385000  1.0
  Pd  Pd24  1  0.73093000  0.99987000  0.12079000  1.0
  Ir  Ir25  1  0.74443000  0.24935000  0.04529000  1.0
  Ir  Ir26  1  0.74453000  0.75061000  0.04527000  1.0
  Pd  Pd27  1  0.75000000  0.00000000  0.95808000  1.0
  Ir  Ir28  1  0.75000000  0.25000000  0.87425000  1.0
  Pd  Pd29  1  0.75000000  0.50000000  0.95808000  1.0
  Ir  Ir30  1  0.75000000  0.75000000  0.87425000  1.0
  Pd  Pd31  1  0.75163000  0.49992000  0.12129000  1.0
  C  C32  1  0.18455000  0.99986000  0.19493000  1.0
  O  O33  1  0.14443000  0.99989000  0.23765000  1.0
