# generated using pymatgen
data_In16Ni16CO
_symmetry_space_group_name_H-M   Pmm2
_cell_length_a   6.35210000
_cell_length_b   8.98322000
_cell_length_c   26.73740000
_cell_angle_alpha   90.00000000
_cell_angle_beta   90.00000000
_cell_angle_gamma   90.00000000
_symmetry_Int_Tables_number   25
_chemical_formula_structural   In16Ni16CO
_chemical_formula_sum   'In16 Ni16 C1 O1'
_cell_volume   1525.69785451
_cell_formula_units_Z   1
loop_
 _symmetry_equiv_pos_site_id
 _symmetry_equiv_pos_as_xyz
  1  'x, y, z'
  2  '-x, -y, z'
  3  '-x, y, z'
  4  'x, -y, z'
loop_
 _atom_site_type_symbol
 _atom_site_label
 _atom_site_symmetry_multiplicity
 _atom_site_fract_x
 _atom_site_fract_y
 _atom_site_fract_z
 _atom_site_occupancy
  In  In0  4  0.25000000  0.25000000  0.95800000  1.0
  In  In1  4  0.25486000  0.25614000  0.13226000  1.0
  In  In2  2  0.24464000  0.00000000  0.04306000  1.0
  In  In3  2  0.25000000  0.00000000  0.87401000  1.0
  In  In4  2  0.25000000  0.50000000  0.87401000  1.0
  In  In5  2  0.25051000  0.50000000  0.04100000  1.0
  Ni  Ni6  2  0.00000000  0.24969000  0.04389000  1.0
  Ni  Ni7  2  0.00000000  0.25000000  0.87401000  1.0
  Ni  Ni8  2  0.50000000  0.24675000  0.04062000  1.0
  Ni  Ni9  2  0.50000000  0.25000000  0.87401000  1.0
  Ni  Ni10  1  0.00000000  0.00000000  0.13125000  1.0
  Ni  Ni11  1  0.00000000  0.00000000  0.95800000  1.0
  Ni  Ni12  1  0.00000000  0.50000000  0.11986000  1.0
  Ni  Ni13  1  0.00000000  0.50000000  0.95800000  1.0
  Ni  Ni14  1  0.50000000  0.00000000  0.11918000  1.0
  Ni  Ni15  1  0.50000000  0.00000000  0.95800000  1.0
  Ni  Ni16  1  0.50000000  0.50000000  0.12010000  1.0
  Ni  Ni17  1  0.50000000  0.50000000  0.95800000  1.0
  C  C18  1  0.00000000  0.00000000  0.19745000  1.0
  O  O19  1  0.00000000  0.00000000  0.24076000  1.0
