# generated using pymatgen
data_Li4Ge4Pd4Au4C
_symmetry_space_group_name_H-M   'P 1'
_cell_length_a   6.30991000
_cell_length_b   6.30991000
_cell_length_c   24.73240000
_cell_angle_alpha   90.00000000
_cell_angle_beta   90.00000000
_cell_angle_gamma   90.00000000
_symmetry_Int_Tables_number   1
_chemical_formula_structural   Li4Ge4Pd4Au4C
_chemical_formula_sum   'Li4 Ge4 Pd4 Au4 C1'
_cell_volume   984.71962078
_cell_formula_units_Z   1
loop_
 _symmetry_equiv_pos_site_id
 _symmetry_equiv_pos_as_xyz
  1  'x, y, z'
loop_
 _atom_site_type_symbol
 _atom_site_label
 _atom_site_symmetry_multiplicity
 _atom_site_fract_x
 _atom_site_fract_y
 _atom_site_fract_z
 _atom_site_occupancy
  Li  Li0  1  0.24893000  0.75107000  0.97030000  1
  Li  Li1  1  0.75000000  0.75000000  0.09567000  1
  Li  Li2  1  0.25000000  0.25000000  0.09567000  1
  Li  Li3  1  0.75077000  0.24923000  0.96436000  1
  Ge  Ge4  1  0.24995000  0.25006000  0.96184000  1
  Ge  Ge5  1  0.75000000  0.25000000  0.09567000  1
  Ge  Ge6  1  0.25000000  0.75000000  0.09567000  1
  Ge  Ge7  1  0.74994000  0.75005000  0.96184000  1
  Pd  Pd8  1  0.46530000  0.96532000  0.89934000  1
  Pd  Pd9  1  0.00000000  0.00000000  0.03189000  1
  Pd  Pd10  1  0.50000000  0.50000000  0.03189000  1
  Pd  Pd11  1  0.03468000  0.53470000  0.89934000  1
  Au  Au12  1  0.99307500  0.00692500  0.89881000  1
  Au  Au13  1  0.50000000  1.00000000  0.03189000  1
  Au  Au14  1  1.00000000  0.50000000  0.03189000  1
  Au  Au15  1  0.50686000  0.49314000  0.89919000  1
  C  C16  1  0.24857000  0.75143000  0.87791000  1
