# generated using pymatgen
data_Li4Ge4Pd4Au4C
_symmetry_space_group_name_H-M   Cm
_cell_length_a   8.92356030
_cell_length_b   8.92356030
_cell_length_c   24.73240000
_cell_angle_alpha   90.00000000
_cell_angle_beta   90.00000000
_cell_angle_gamma   90.00000000
_symmetry_Int_Tables_number   8
_chemical_formula_structural   Li4Ge4Pd4Au4C
_chemical_formula_sum   'Li8 Ge8 Pd8 Au8 C2'
_cell_volume   1969.43924156
_cell_formula_units_Z   2
loop_
 _symmetry_equiv_pos_site_id
 _symmetry_equiv_pos_as_xyz
  1  'x, y, z'
  2  'x, -y, z'
  3  'x+1/2, y+1/2, z'
  4  'x+1/2, -y+1/2, z'
loop_
 _atom_site_type_symbol
 _atom_site_label
 _atom_site_symmetry_multiplicity
 _atom_site_fract_x
 _atom_site_fract_y
 _atom_site_fract_z
 _atom_site_occupancy
  Li  Li0  4  0.00000000  0.25000000  0.90433000  1.0
  Li  Li1  2  0.24893000  0.00000000  0.02970000  1.0
  Li  Li2  2  0.25077000  0.50000000  0.03564000  1.0
  Ge  Ge3  4  0.49994500  0.24999500  0.03816000  1.0
  Ge  Ge4  2  0.25000000  0.00000000  0.90433000  1.0
  Ge  Ge5  2  0.25000000  0.50000000  0.90433000  1.0
  Pd  Pd6  4  0.24999000  0.21531000  0.10066000  1.0
  Pd  Pd7  2  0.00000000  0.00000000  0.96811000  1.0
  Pd  Pd8  2  0.00000000  0.50000000  0.96811000  1.0
  Au  Au9  4  0.25000000  0.25000000  0.96811000  1.0
  Au  Au10  2  0.00686000  0.50000000  0.10081000  1.0
  Au  Au11  2  0.49307500  0.50000000  0.10119000  1.0
  C  C12  2  0.24857000  0.00000000  0.12209000  1.0
