# generated using pymatgen
data_Ta8Al8Ni16C
_symmetry_space_group_name_H-M   Pm
_cell_length_a   6.00328000
_cell_length_b   8.48992000
_cell_length_c   26.36740000
_cell_angle_alpha   90.00000000
_cell_angle_beta   90.00000000
_cell_angle_gamma   90.00000000
_symmetry_Int_Tables_number   6
_chemical_formula_structural   Ta8Al8Ni16C
_chemical_formula_sum   'Ta8 Al8 Ni16 C1'
_cell_volume   1343.87695099
_cell_formula_units_Z   1
loop_
 _symmetry_equiv_pos_site_id
 _symmetry_equiv_pos_as_xyz
  1  'x, y, z'
  2  'x, -y, z'
loop_
 _atom_site_type_symbol
 _atom_site_label
 _atom_site_symmetry_multiplicity
 _atom_site_fract_x
 _atom_site_fract_y
 _atom_site_fract_z
 _atom_site_occupancy
  Ta  Ta0  2  0.00000000  0.24998000  0.87926000  1.0
  Ta  Ta1  2  0.99776000  0.25664000  0.04337000  1.0
  Ta  Ta2  1  0.46031000  0.50000000  0.11975000  1.0
  Ta  Ta3  1  0.50000000  0.00000000  0.95975000  1.0
  Ta  Ta4  1  0.50000000  0.50000000  0.95975000  1.0
  Ta  Ta5  1  0.50422000  0.00000000  0.11398000  1.0
  Al  Al6  2  0.49175000  0.24668000  0.03975000  1.0
  Al  Al7  2  0.50000000  0.24998000  0.87926000  1.0
  Al  Al8  1  -0.00000000  0.00000000  0.95975000  1.0
  Al  Al9  1  0.00000000  0.50000000  0.95975000  1.0
  Al  Al10  1  0.94670000  0.00000000  0.12637000  1.0
  Al  Al11  1  0.98816000  0.50000000  0.12305000  1.0
  Ni  Ni12  2  0.22107000  0.23734000  0.12751000  1.0
  Ni  Ni13  2  0.25000000  0.24998000  0.95975000  1.0
  Ni  Ni14  2  0.72578000  0.26022000  0.11634000  1.0
  Ni  Ni15  2  0.75000000  0.25002000  0.95975000  1.0
  Ni  Ni16  1  0.22843000  0.00000000  0.03776000  1.0
  Ni  Ni17  1  0.25000000  0.00000000  0.87926000  1.0
  Ni  Ni18  1  0.25000000  0.50000000  0.87926000  1.0
  Ni  Ni19  1  0.26298000  0.50000000  0.03672000  1.0
  Ni  Ni20  1  0.72565000  0.50000000  0.04543000  1.0
  Ni  Ni21  1  0.75000000  0.00000000  0.87926000  1.0
  Ni  Ni22  1  0.75000000  0.50000000  0.87926000  1.0
  Ni  Ni23  1  0.77562000  0.00000000  0.03459000  1.0
  C  C24  1  0.23650000  0.00000000  0.15533000  1.0
