# generated using pymatgen
data_Li16Ag8Sn8C
_symmetry_space_group_name_H-M   'P 1'
_cell_length_a   9.41809000
_cell_length_b   6.65960000
_cell_length_c   27.06360000
_cell_angle_alpha   90.00000000
_cell_angle_beta   90.00000000
_cell_angle_gamma   90.00000000
_symmetry_Int_Tables_number   1
_chemical_formula_structural   Li16Ag8Sn8C
_chemical_formula_sum   'Li16 Ag8 Sn8 C1'
_cell_volume   1697.44826572
_cell_formula_units_Z   1
loop_
 _symmetry_equiv_pos_site_id
 _symmetry_equiv_pos_as_xyz
  1  'x, y, z'
loop_
 _atom_site_type_symbol
 _atom_site_label
 _atom_site_symmetry_multiplicity
 _atom_site_fract_x
 _atom_site_fract_y
 _atom_site_fract_z
 _atom_site_occupancy
  Li  Li0  1  0.50000000  0.00000000  0.04350000  1.0
  Li  Li1  1  0.75000000  0.50000000  0.13050000  1.0
  Li  Li2  1  0.00000000  0.00000000  0.04350000  1.0
  Li  Li3  1  0.25000000  0.50000000  0.13050000  1.0
  Li  Li4  1  0.75000000  0.25000000  0.04350000  1.0
  Li  Li5  1  0.25000000  0.25000000  0.04350000  1.0
  Li  Li6  1  0.50000000  0.75000000  0.13050000  1.0
  Li  Li7  1  0.00000000  0.75000000  0.13050000  1.0
  Li  Li8  1  0.00000000  0.01672000  0.87211000  1.0
  Li  Li9  1  0.25539000  0.49470000  0.96174000  1.0
  Li  Li10  1  0.50000000  0.96301000  0.87295000  1.0
  Li  Li11  1  0.74461000  0.49470000  0.96174000  1.0
  Li  Li12  1  0.27546000  0.26593000  0.87002000  1.0
  Li  Li13  1  0.72454000  0.26593000  0.87002000  1.0
  Li  Li14  1  0.00000000  0.74323000  0.94758000  1.0
  Li  Li15  1  0.50000000  0.73660000  0.95578000  1.0
  Ag  Ag16  1  0.00000000  0.25000000  0.13050000  1.0
  Ag  Ag17  1  0.50000000  0.25000000  0.13050000  1.0
  Ag  Ag18  1  0.25000000  0.75000000  0.04350000  1.0
  Ag  Ag19  1  0.75000000  0.75000000  0.04350000  1.0
  Ag  Ag20  1  0.50000000  0.26439000  0.94923000  1.0
  Ag  Ag21  1  0.00000000  0.24954000  0.95782000  1.0
  Ag  Ag22  1  0.76147000  0.71860000  0.87550000  1.0
  Ag  Ag23  1  0.23853000  0.71860000  0.87550000  1.0
  Sn  Sn24  1  0.75000000  0.00000000  0.13050000  1.0
  Sn  Sn25  1  0.00000000  0.50000000  0.04350000  1.0
  Sn  Sn26  1  0.50000000  0.50000000  0.04350000  1.0
  Sn  Sn27  1  0.25000000  0.00000000  0.13050000  1.0
  Sn  Sn28  1  0.25241000  0.00528000  0.95452000  1.0
  Sn  Sn29  1  0.50000000  0.52379000  0.85876000  1.0
  Sn  Sn30  1  0.00000000  0.42412000  0.84434000  1.0
  Sn  Sn31  1  0.74759000  0.00528000  0.95452000  1.0
  C  C32  1  0.00000000  0.71919000  0.86736000  1.0
