# generated using pymatgen
data_Y8In8Ag8Pd8C
_symmetry_space_group_name_H-M   Pm
_cell_length_a   6.92663000
_cell_length_b   9.79574000
_cell_length_c   27.34680000
_cell_angle_alpha   90.00000000
_cell_angle_beta   90.00000000
_cell_angle_gamma   90.00000000
_symmetry_Int_Tables_number   6
_chemical_formula_structural   Y8In8Ag8Pd8C
_chemical_formula_sum   'Y8 In8 Ag8 Pd8 C1'
_cell_volume   1855.52048562
_cell_formula_units_Z   1
loop_
 _symmetry_equiv_pos_site_id
 _symmetry_equiv_pos_as_xyz
  1  'x, y, z'
  2  'x, -y, z'
loop_
 _atom_site_type_symbol
 _atom_site_label
 _atom_site_symmetry_multiplicity
 _atom_site_fract_x
 _atom_site_fract_y
 _atom_site_fract_z
 _atom_site_occupancy
  Y  Y0  2  0.25000000  0.24999000  0.86567000  1.0
  Y  Y1  2  0.26175000  0.24726000  0.05209000  1.0
  Y  Y2  1  0.64565000  0.00000000  0.13250000  1.0
  Y  Y3  1  0.69744000  0.50000000  0.12862000  1.0
  Y  Y4  1  0.75000000  0.00000000  0.95522000  1.0
  Y  Y5  1  0.75000000  0.50000000  0.95522000  1.0
  In  In6  2  0.74702000  0.25136000  0.04568000  1.0
  In  In7  2  0.75000000  0.24999000  0.86567000  1.0
  In  In8  1  0.17655000  0.50000000  0.13901000  1.0
  In  In9  1  0.23263000  0.00000000  0.18514000  1.0
  In  In10  1  0.25000000  0.00000000  0.95522000  1.0
  In  In11  1  0.25000000  0.50000000  0.95522000  1.0
  Ag  Ag12  2  0.40597000  0.26343000  0.16138000  1.0
  Ag  Ag13  2  0.50000000  0.25001000  0.95522000  1.0
  Ag  Ag14  1  0.00000000  0.00000000  0.86567000  1.0
  Ag  Ag15  1  0.00000000  0.50000000  0.86567000  1.0
  Ag  Ag16  1  0.00318000  0.50000000  0.04414000  1.0
  Ag  Ag17  1  0.99371000  0.00000000  0.05323000  1.0
  Pd  Pd18  2  0.00000000  0.24999000  0.95522000  1.0
  Pd  Pd19  2  0.99240000  0.22106000  0.12919000  1.0
  Pd  Pd20  1  0.49080000  0.50000000  0.04113000  1.0
  Pd  Pd21  1  0.50000000  0.00000000  0.86567000  1.0
  Pd  Pd22  1  0.50000000  0.50000000  0.86567000  1.0
  Pd  Pd23  1  0.50085000  0.00000000  0.03618000  1.0
  C  C24  1  0.96262000  0.00000000  0.14354000  1.0
