# generated using pymatgen
data_LiScGePd
_symmetry_space_group_name_H-M   Pm
_cell_length_a   6.30999000
_cell_length_b   4.46184000
_cell_length_c   26.69280000
_cell_angle_alpha   90.00000000
_cell_angle_beta   90.00000000
_cell_angle_gamma   90.00000000
_symmetry_Int_Tables_number   6
_chemical_formula_structural   LiScGePd
_chemical_formula_sum   'Li4 Sc4 Ge4 Pd4'
_cell_volume   751.51351638
_cell_formula_units_Z   4
loop_
 _symmetry_equiv_pos_site_id
 _symmetry_equiv_pos_as_xyz
  1  'x, y, z'
  2  'x, -y, z'
loop_
 _atom_site_type_symbol
 _atom_site_label
 _atom_site_symmetry_multiplicity
 _atom_site_fract_x
 _atom_site_fract_y
 _atom_site_fract_z
 _atom_site_occupancy
  Li  Li0  1  0.25000000  0.00000000  0.04179000  1.0
  Li  Li1  1  0.40797000  0.00000000  0.82769000  1.0
  Li  Li2  1  0.75000000  0.50000000  0.12537000  1.0
  Li  Li3  1  0.75478000  0.50000000  0.95552000  1.0
  Sc  Sc4  1  0.00000000  0.50000000  0.04179000  1.0
  Sc  Sc5  1  0.03946500  0.50000000  0.87509000  1.0
  Sc  Sc6  1  0.49013000  0.00000000  0.95206500  1.0
  Sc  Sc7  1  0.50000000  0.00000000  0.12537000  1.0
  Ge  Ge8  1  0.00000000  0.00000000  0.12537000  1.0
  Ge  Ge9  1  0.00715000  0.00000000  0.95831000  1.0
  Ge  Ge10  1  0.50000000  0.50000000  0.04179000  1.0
  Ge  Ge11  1  0.50896500  0.50000000  0.87300000  1.0
  Pd  Pd12  1  0.24928000  0.50000000  0.96059000  1.0
  Pd  Pd13  1  0.25000000  0.50000000  0.12537000  1.0
  Pd  Pd14  1  0.75000000  0.00000000  0.04179000  1.0
  Pd  Pd15  1  0.77637000  0.00000000  0.87856000  1.0
