# generated using pymatgen
data_Li8Y8Pd8Pb8CO
_symmetry_space_group_name_H-M   'P 1'
_cell_length_a   9.74510000
_cell_length_b   6.89083000
_cell_length_c   27.30880000
_cell_angle_alpha   90.00000000
_cell_angle_beta   90.00000000
_cell_angle_gamma   90.00000000
_symmetry_Int_Tables_number   1
_chemical_formula_structural   Li8Y8Pd8Pb8CO
_chemical_formula_sum   'Li8 Y8 Pd8 Pb8 C1 O1'
_cell_volume   1833.83582500
_cell_formula_units_Z   1
loop_
 _symmetry_equiv_pos_site_id
 _symmetry_equiv_pos_as_xyz
  1  'x, y, z'
loop_
 _atom_site_type_symbol
 _atom_site_label
 _atom_site_symmetry_multiplicity
 _atom_site_fract_x
 _atom_site_fract_y
 _atom_site_fract_z
 _atom_site_occupancy
  Li  Li0  1  0.50000000  0.00000000  0.13382000  1.0
  Li  Li1  1  0.00000000  0.00000000  0.13382000  1.0
  Li  Li2  1  0.25003000  0.50000000  0.04461000  1.0
  Li  Li3  1  0.74997000  0.50000000  0.04461000  1.0
  Li  Li4  1  0.00000000  0.99824000  0.95237000  1.0
  Li  Li5  1  0.50000000  0.00375000  0.95373000  1.0
  Li  Li6  1  0.74767000  0.31849000  0.81650000  1.0
  Li  Li7  1  0.25233000  0.31849000  0.81650000  1.0
  Y  Y8  1  0.50000000  0.75000000  0.04461000  1.0
  Y  Y9  1  0.00000000  0.75000000  0.04461000  1.0
  Y  Y10  1  0.75003000  0.25000000  0.13382000  1.0
  Y  Y11  1  0.24997000  0.25000000  0.13382000  1.0
  Y  Y12  1  0.00000000  0.72344000  0.86754000  1.0
  Y  Y13  1  0.50000000  0.72610000  0.86731000  1.0
  Y  Y14  1  0.24855000  0.25802000  0.94956000  1.0
  Y  Y15  1  0.75145000  0.25802000  0.94956000  1.0
  Pd  Pd16  1  0.75003000  0.00000000  0.04461000  1.0
  Pd  Pd17  1  0.24997000  0.00000000  0.04461000  1.0
  Pd  Pd18  1  0.00000000  0.50000000  0.13382000  1.0
  Pd  Pd19  1  0.50000000  0.50000000  0.13382000  1.0
  Pd  Pd20  1  0.24639000  0.98352000  0.87166000  1.0
  Pd  Pd21  1  0.75361000  0.98352000  0.87166000  1.0
  Pd  Pd22  1  0.50000000  0.49306000  0.95715000  1.0
  Pd  Pd23  1  0.00000000  0.50255000  0.95587000  1.0
  Pb  Pb24  1  0.50000000  0.25000000  0.04461000  1.0
  Pb  Pb25  1  0.00000000  0.25000000  0.04461000  1.0
  Pb  Pb26  1  0.75003000  0.75000000  0.13382000  1.0
  Pb  Pb27  1  0.24997000  0.75000000  0.13382000  1.0
  Pb  Pb28  1  0.00000000  0.24230000  0.86128000  1.0
  Pb  Pb29  1  0.50000000  0.23952000  0.86319000  1.0
  Pb  Pb30  1  0.25117000  0.74528000  0.95629000  1.0
  Pb  Pb31  1  0.74883000  0.74528000  0.95629000  1.0
  C  C32  1  0.50000000  0.70263000  0.77680000  1.0
  O  O33  1  0.50000000  0.70332000  0.73448000  1.0
