# generated using pymatgen
data_Li8Y8Pd8Pb8CO
_symmetry_space_group_name_H-M   Pm
_cell_length_a   6.89083000
_cell_length_b   9.74510000
_cell_length_c   27.30880000
_cell_angle_alpha   90.00000000
_cell_angle_beta   90.00000000
_cell_angle_gamma   90.00000000
_symmetry_Int_Tables_number   6
_chemical_formula_structural   Li8Y8Pd8Pb8CO
_chemical_formula_sum   'Li8 Y8 Pd8 Pb8 C1 O1'
_cell_volume   1833.83582500
_cell_formula_units_Z   1
loop_
 _symmetry_equiv_pos_site_id
 _symmetry_equiv_pos_as_xyz
  1  'x, y, z'
  2  'x, -y, z'
loop_
 _atom_site_type_symbol
 _atom_site_label
 _atom_site_symmetry_multiplicity
 _atom_site_fract_x
 _atom_site_fract_y
 _atom_site_fract_z
 _atom_site_occupancy
  Li  Li0  2  0.31849000  0.25233000  0.18350000  1.0
  Li  Li1  2  0.50000000  0.25003000  0.95539000  1.0
  Li  Li2  1  0.00000000  0.00000000  0.86618000  1.0
  Li  Li3  1  0.00000000  0.50000000  0.86618000  1.0
  Li  Li4  1  0.00375000  0.50000000  0.04627000  1.0
  Li  Li5  1  0.99824000  0.00000000  0.04763000  1.0
  Y  Y6  2  0.25000000  0.24997000  0.86618000  1.0
  Y  Y7  2  0.25802000  0.24855000  0.05044000  1.0
  Y  Y8  1  0.72344000  0.00000000  0.13246000  1.0
  Y  Y9  1  0.72610000  0.50000000  0.13269000  1.0
  Y  Y10  1  0.75000000  0.00000000  0.95539000  1.0
  Y  Y11  1  0.75000000  0.50000000  0.95539000  1.0
  Pd  Pd12  2  0.00000000  0.24997000  0.95539000  1.0
  Pd  Pd13  2  0.98352000  0.24639000  0.12834000  1.0
  Pd  Pd14  1  0.49306000  0.50000000  0.04285000  1.0
  Pd  Pd15  1  0.50000000  0.00000000  0.86618000  1.0
  Pd  Pd16  1  0.50000000  0.50000000  0.86618000  1.0
  Pd  Pd17  1  0.50255000  0.00000000  0.04413000  1.0
  Pb  Pb18  2  0.74528000  0.25117000  0.04371000  1.0
  Pb  Pb19  2  0.75000000  0.24997000  0.86618000  1.0
  Pb  Pb20  1  0.23952000  0.50000000  0.13681000  1.0
  Pb  Pb21  1  0.24230000  0.00000000  0.13872000  1.0
  Pb  Pb22  1  0.25000000  0.00000000  0.95539000  1.0
  Pb  Pb23  1  0.25000000  0.50000000  0.95539000  1.0
  C  C24  1  0.70263000  0.50000000  0.22320000  1.0
  O  O25  1  0.70332000  0.50000000  0.26552000  1.0
