# generated using pymatgen
data_Hf4Ir12CO
_symmetry_space_group_name_H-M   Pm
_cell_length_a   5.61861000
_cell_length_b   7.94591000
_cell_length_c   24.21400000
_cell_angle_alpha   90.00000000
_cell_angle_beta   90.00000000
_cell_angle_gamma   90.00000000
_symmetry_Int_Tables_number   6
_chemical_formula_structural   Hf4Ir12CO
_chemical_formula_sum   'Hf4 Ir12 C1 O1'
_cell_volume   1081.03328869
_cell_formula_units_Z   1
loop_
 _symmetry_equiv_pos_site_id
 _symmetry_equiv_pos_as_xyz
  1  'x, y, z'
  2  'x, -y, z'
loop_
 _atom_site_type_symbol
 _atom_site_label
 _atom_site_symmetry_multiplicity
 _atom_site_fract_x
 _atom_site_fract_y
 _atom_site_fract_z
 _atom_site_occupancy
  Hf  Hf0  2  0.00000000  0.25000000  0.08702000  1.0
  Hf  Hf1  2  0.50220000  0.25050000  0.97169000  1.0
  Ir  Ir2  2  0.00336000  0.24947000  0.97413000  1.0
  Ir  Ir3  2  0.50000000  0.25000000  0.08702000  1.0
  Ir  Ir4  1  0.25000000  0.00000000  0.02901000  1.0
  Ir  Ir5  1  0.25000000  0.50000000  0.02901000  1.0
  Ir  Ir6  1  0.25266000  0.50000000  0.91892000  1.0
  Ir  Ir7  1  0.25729000  0.00000000  0.91869000  1.0
  Ir  Ir8  1  0.75000000  0.00000000  0.02901000  1.0
  Ir  Ir9  1  0.75000000  0.50000000  0.02901000  1.0
  Ir  Ir10  1  0.75334000  0.00000000  0.91896000  1.0
  Ir  Ir11  1  0.75387000  0.50000000  0.91533000  1.0
  C  C12  1  0.74643000  0.50000000  0.83790000  1.0
  O  O13  1  0.74469000  0.50000000  0.78996000  1.0
