# generated using pymatgen
data_Nb4Zn12CO
_symmetry_space_group_name_H-M   'P 1'
_cell_length_a   5.57908000
_cell_length_b   7.89001000
_cell_length_c   24.18430000
_cell_angle_alpha   90.00000000
_cell_angle_beta   90.00000000
_cell_angle_gamma   90.00000000
_symmetry_Int_Tables_number   1
_chemical_formula_structural   Nb4Zn12CO
_chemical_formula_sum   'Nb4 Zn12 C1 O1'
_cell_volume   1064.56862892
_cell_formula_units_Z   1
loop_
 _symmetry_equiv_pos_site_id
 _symmetry_equiv_pos_as_xyz
  1  'x, y, z'
loop_
 _atom_site_type_symbol
 _atom_site_label
 _atom_site_symmetry_multiplicity
 _atom_site_fract_x
 _atom_site_fract_y
 _atom_site_fract_z
 _atom_site_occupancy
  Nb  Nb0  1  0.00000000  0.00000000  0.08651000  1.0
  Nb  Nb1  1  0.49926000  0.00042000  0.97275000  1.0
  Nb  Nb2  1  0.00000000  0.50000000  0.08651000  1.0
  Nb  Nb3  1  0.49937000  0.49959000  0.97274000  1.0
  Zn  Zn4  1  0.50000000  0.00000000  0.08651000  1.0
  Zn  Zn5  1  0.25000000  0.75000000  0.02884000  1.0
  Zn  Zn6  1  0.75000000  0.75000000  0.02884000  1.0
  Zn  Zn7  1  0.99729000  0.99603000  0.96351000  1.0
  Zn  Zn8  1  0.73640000  0.74978000  0.91107000  1.0
  Zn  Zn9  1  0.26028000  0.75008000  0.91616000  1.0
  Zn  Zn10  1  0.50000000  0.50000000  0.08651000  1.0
  Zn  Zn11  1  0.25000000  0.25000000  0.02884000  1.0
  Zn  Zn12  1  0.75000000  0.25000000  0.02884000  1.0
  Zn  Zn13  1  0.99724000  0.50396000  0.96358000  1.0
  Zn  Zn14  1  0.74133000  0.25010000  0.91546000  1.0
  Zn  Zn15  1  0.25255000  0.24999000  0.91619000  1.0
  C  C16  1  0.81834000  0.74945000  0.82798000  1.0
  O  O17  1  0.82754000  0.74989000  0.78061000  1.0
