# generated using pymatgen
data_Li4Al4Ag4Sn4CO
_symmetry_space_group_name_H-M   Pm
_cell_length_a   6.09080000
_cell_length_b   8.16098000
_cell_length_c   24.56780000
_cell_angle_alpha   90.00000000
_cell_angle_beta   90.00000000
_cell_angle_gamma   90.00000000
_symmetry_Int_Tables_number   6
_chemical_formula_structural   Li4Al4Ag4Sn4CO
_chemical_formula_sum   'Li4 Al4 Ag4 Sn4 C1 O1'
_cell_volume   1221.18910372
_cell_formula_units_Z   1
loop_
 _symmetry_equiv_pos_site_id
 _symmetry_equiv_pos_as_xyz
  1  'x, y, z'
  2  'x, -y, z'
loop_
 _atom_site_type_symbol
 _atom_site_label
 _atom_site_symmetry_multiplicity
 _atom_site_fract_x
 _atom_site_fract_y
 _atom_site_fract_z
 _atom_site_occupancy
  Li  Li0  2  0.25929000  0.25001000  0.09296000  1.0
  Li  Li1  2  0.75184000  0.25038000  0.96638000  1.0
  Al  Al2  2  0.27111000  0.25157000  0.96742000  1.0
  Al  Al3  2  0.75929000  0.25001000  0.09296000  1.0
  Ag  Ag4  1  0.01051000  0.00000000  0.90878000  1.0
  Ag  Ag5  1  0.50619000  0.00000000  0.03099000  1.0
  Ag  Ag6  1  0.50619000  0.50000000  0.03099000  1.0
  Ag  Ag7  1  0.99305000  0.50000000  0.90957000  1.0
  Sn  Sn8  1  0.00619000  0.00000000  0.03099000  1.0
  Sn  Sn9  1  0.00619000  0.50000000  0.03099000  1.0
  Sn  Sn10  1  0.48793000  0.50000000  0.89989000  1.0
  Sn  Sn11  1  0.49374000  0.00000000  0.90393000  1.0
  C  C12  1  0.98019000  0.00000000  0.81355000  1.0
  O  O13  1  0.01132000  0.00000000  0.76781000  1.0
