# generated using pymatgen
data_Li4Al4Fe4Pd4C
_symmetry_space_group_name_H-M   P1
_cell_length_a   5.25393000
_cell_length_b   8.60712000
_cell_length_c   23.58290000
_cell_angle_alpha   90.00000000
_cell_angle_beta   90.00000000
_cell_angle_gamma   90.00000000
_symmetry_Int_Tables_number   1
_chemical_formula_structural   Li4Al4Fe4Pd4C
_chemical_formula_sum   'Li4 Al4 Fe4 Pd4 C1'
_cell_volume   1066.44717854
_cell_formula_units_Z   1
loop_
 _symmetry_equiv_pos_site_id
 _symmetry_equiv_pos_as_xyz
  1  'x, y, z'
loop_
 _atom_site_type_symbol
 _atom_site_label
 _atom_site_symmetry_multiplicity
 _atom_site_fract_x
 _atom_site_fract_y
 _atom_site_fract_z
 _atom_site_occupancy
  Li  Li0  1  0.64594000  0.25000000  0.97468000  1.0
  Li  Li1  1  0.64594000  0.75000000  0.97468000  1.0
  Li  Li2  1  0.95788000  0.75184000  0.08342000  1.0
  Li  Li3  1  0.95796000  0.24820000  0.08340000  1.0
  Al  Al4  1  0.00000000  0.00000000  0.92404000  1.0
  Al  Al5  1  0.00000000  0.50000000  0.92404000  1.0
  Al  Al6  1  0.26403000  0.00002000  0.01380000  1.0
  Al  Al7  1  0.31061000  0.49994000  0.02654000  1.0
  Fe  Fe8  1  0.14594000  0.25000000  0.97468000  1.0
  Fe  Fe9  1  0.14594000  0.75000000  0.97468000  1.0
  Fe  Fe10  1  0.44634000  0.79716000  0.06413000  1.0
  Fe  Fe11  1  0.44652000  0.20268000  0.06419000  1.0
  Pd  Pd12  1  0.50000000  0.00000000  0.92404000  1.0
  Pd  Pd13  1  0.50000000  0.50000000  0.92404000  1.0
  Pd  Pd14  1  0.80418000  0.99996000  0.02489000  1.0
  Pd  Pd15  1  0.80785000  0.50003000  0.02665000  1.0
  C  C16  1  0.47616000  0.99990000  0.08431000  1.0
