# generated using pymatgen
data_YInSnPd
_symmetry_space_group_name_H-M   'P 1'
_cell_length_a   4.36686000
_cell_length_b   4.53197000
_cell_length_c   26.87300000
_cell_angle_alpha   90.00000000
_cell_angle_beta   90.00000000
_cell_angle_gamma   90.00000000
_symmetry_Int_Tables_number   1
_chemical_formula_structural   YInSnPd
_chemical_formula_sum   'Y2 In2 Sn2 Pd2'
_cell_volume   531.82952911
_cell_formula_units_Z   2
loop_
 _symmetry_equiv_pos_site_id
 _symmetry_equiv_pos_as_xyz
  1  'x, y, z'
loop_
 _atom_site_type_symbol
 _atom_site_label
 _atom_site_symmetry_multiplicity
 _atom_site_fract_x
 _atom_site_fract_y
 _atom_site_fract_z
 _atom_site_occupancy
  Y  Y0  1  0.00000000  0.50000000  0.04551000  1.0
  Y  Y1  1  0.00000000  0.50000000  0.87212000  1.0
  In  In2  1  0.00000000  0.00000000  0.13945000  1.0
  In  In3  1  0.00000000  0.00000000  0.95737000  1.0
  Sn  Sn4  1  0.50000000  0.00000000  0.04458000  1.0
  Sn  Sn5  1  0.50000000  0.00000000  0.87212000  1.0
  Pd  Pd6  1  0.50000000  0.50000000  0.11858000  1.0
  Pd  Pd7  1  0.50000000  0.50000000  0.95737000  1.0
