# generated using pymatgen
data_Li8Al8In8Cu8CO
_symmetry_space_group_name_H-M   Pm
_cell_length_a   6.37467000
_cell_length_b   9.01514000
_cell_length_c   26.76140000
_cell_angle_alpha   90.00000000
_cell_angle_beta   90.00000000
_cell_angle_gamma   90.00000000
_symmetry_Int_Tables_number   6
_chemical_formula_structural   Li8Al8In8Cu8CO
_chemical_formula_sum   'Li8 Al8 In8 Cu8 C1 O1'
_cell_volume   1537.93865336
_cell_formula_units_Z   1
loop_
 _symmetry_equiv_pos_site_id
 _symmetry_equiv_pos_as_xyz
  1  'x, y, z'
  2  'x, -y, z'
loop_
 _atom_site_type_symbol
 _atom_site_label
 _atom_site_symmetry_multiplicity
 _atom_site_fract_x
 _atom_site_fract_y
 _atom_site_fract_z
 _atom_site_occupancy
  Li  Li0  2  0.71941000  0.25040000  0.14916000  1.0
  Li  Li1  2  0.75000000  0.25000000  0.95789000  1.0
  Li  Li2  1  0.22527000  0.00000000  0.04461000  1.0
  Li  Li3  1  0.22745000  0.50000000  0.04452000  1.0
  Li  Li4  1  0.25000000  0.00000000  0.87367000  1.0
  Li  Li5  1  0.25000000  0.50000000  0.87367000  1.0
  Al  Al6  2  0.00000000  0.25000000  0.87367000  1.0
  Al  Al7  2  0.97680000  0.25145000  0.05081000  1.0
  Al  Al8  1  0.46763000  0.00000000  0.12430000  1.0
  Al  Al9  1  0.47796000  0.50000000  0.12756000  1.0
  Al  Al10  1  0.50000000  0.00000000  0.95789000  1.0
  Al  Al11  1  0.50000000  0.50000000  0.95789000  1.0
  In  In12  2  0.50000000  0.25000000  0.87367000  1.0
  In  In13  2  0.50652000  0.25436000  0.04334000  1.0
  In  In14  1  -0.00000000  0.50000000  0.95789000  1.0
  In  In15  1  0.00000000  0.00000000  0.95789000  1.0
  In  In16  1  0.00098000  0.00000000  0.14201000  1.0
  In  In17  1  0.98845000  0.50000000  0.13805000  1.0
  Cu  Cu18  2  0.24947000  0.25388000  0.12069000  1.0
  Cu  Cu19  2  0.25000000  0.25000000  0.95789000  1.0
  Cu  Cu20  1  0.75000000  0.00000000  0.87367000  1.0
  Cu  Cu21  1  0.75000000  0.50000000  0.87367000  1.0
  Cu  Cu22  1  0.75997000  0.00000000  0.04567000  1.0
  Cu  Cu23  1  0.76124000  0.50000000  0.04016000  1.0
  C  C24  1  0.49599000  0.00000000  0.19765000  1.0
  O  O25  1  0.50745000  0.00000000  0.24108000  1.0
