# generated using pymatgen
data_Li8Si8Ni16CO
_symmetry_space_group_name_H-M   Pm
_cell_length_a   7.86772000
_cell_length_b   5.56332000
_cell_length_c   25.90080000
_cell_angle_alpha   90.00000000
_cell_angle_beta   90.00000000
_cell_angle_gamma   90.00000000
_symmetry_Int_Tables_number   6
_chemical_formula_structural   Li8Si8Ni16CO
_chemical_formula_sum   'Li8 Si8 Ni16 C1 O1'
_cell_volume   1133.69469690
_cell_formula_units_Z   1
loop_
 _symmetry_equiv_pos_site_id
 _symmetry_equiv_pos_as_xyz
  1  'x, y, z'
  2  'x, -y, z'
loop_
 _atom_site_type_symbol
 _atom_site_label
 _atom_site_symmetry_multiplicity
 _atom_site_fract_x
 _atom_site_fract_y
 _atom_site_fract_z
 _atom_site_occupancy
  Li  Li0  1  0.00000000  0.00000000  0.88609000  1.0
  Li  Li1  1  0.00025000  0.00000000  0.03429000  1.0
  Li  Li2  1  0.25000000  0.50000000  0.96203000  1.0
  Li  Li3  1  0.25009000  0.50000000  0.13938000  1.0
  Li  Li4  1  0.49972000  0.00000000  0.03420000  1.0
  Li  Li5  1  0.50000000  0.00000000  0.88609000  1.0
  Li  Li6  1  0.74993000  0.50000000  0.13607000  1.0
  Li  Li7  1  0.75000000  0.50000000  0.96203000  1.0
  Si  Si8  1  0.00000000  0.50000000  0.88609000  1.0
  Si  Si9  1  0.24995000  0.00000000  0.11242000  1.0
  Si  Si10  1  0.25000000  0.00000000  0.96203000  1.0
  Si  Si11  1  0.50000000  0.50000000  0.03908000  1.0
  Si  Si12  1  0.50000000  0.50000000  0.88609000  1.0
  Si  Si13  1  0.75000000  0.00000000  0.96203000  1.0
  Si  Si14  1  0.75009000  0.00000000  0.11290000  1.0
  Si  Si15  1  0.99996000  0.50000000  0.03910000  1.0
  Ni  Ni16  2  0.00000000  0.25000000  0.96203000  1.0
  Ni  Ni17  2  0.24995000  0.25595000  0.03871000  1.0
  Ni  Ni18  2  0.25000000  0.25000000  0.88609000  1.0
  Ni  Ni19  2  0.50000000  0.25000000  0.96203000  1.0
  Ni  Ni20  2  0.50016000  0.22958000  0.10832000  1.0
  Ni  Ni21  2  0.75000000  0.25000000  0.88609000  1.0
  Ni  Ni22  2  0.75005000  0.25510000  0.03847000  1.0
  Ni  Ni23  2  0.99986000  0.22977000  0.10833000  1.0
  C  C24  1  0.24997000  0.50000000  0.22208000  1.0
  O  O25  1  0.24994000  0.50000000  0.26599000  1.0
