# generated using pymatgen
data_Li8Hf8Sn8Pd8CO
_symmetry_space_group_name_H-M   Pm
_cell_length_a   6.67688000
_cell_length_b   9.44254000
_cell_length_c   27.08190000
_cell_angle_alpha   90.00000000
_cell_angle_beta   90.00000000
_cell_angle_gamma   90.00000000
_symmetry_Int_Tables_number   6
_chemical_formula_structural   Li8Hf8Sn8Pd8CO
_chemical_formula_sum   'Li8 Hf8 Sn8 Pd8 C1 O1'
_cell_volume   1707.42460009
_cell_formula_units_Z   1
loop_
 _symmetry_equiv_pos_site_id
 _symmetry_equiv_pos_as_xyz
  1  'x, y, z'
  2  'x, -y, z'
loop_
 _atom_site_type_symbol
 _atom_site_label
 _atom_site_symmetry_multiplicity
 _atom_site_fract_x
 _atom_site_fract_y
 _atom_site_fract_z
 _atom_site_occupancy
  Li  Li0  2  0.00000000  0.25000000  0.95642000  1.0
  Li  Li1  2  0.95307000  0.23795000  0.14860000  1.0
  Li  Li2  1  0.50000000  0.00000000  0.86925000  1.0
  Li  Li3  1  0.50000000  0.50000000  0.86925000  1.0
  Li  Li4  1  0.50206000  0.00000000  0.03593000  1.0
  Li  Li5  1  0.50569000  0.50000000  0.03711000  1.0
  Hf  Hf6  2  0.41718000  0.25722000  0.11345000  1.0
  Hf  Hf7  2  0.50000000  0.25000000  0.95642000  1.0
  Hf  Hf8  1  0.00000000  0.00000000  0.86925000  1.0
  Hf  Hf9  1  0.00000000  0.50000000  0.86925000  1.0
  Hf  Hf10  1  0.04579000  0.50000000  0.06399000  1.0
  Hf  Hf11  1  0.05701000  0.00000000  0.06480000  1.0
  Sn  Sn12  2  0.75000000  0.25000000  0.86925000  1.0
  Sn  Sn13  2  0.77352000  0.24694000  0.04907000  1.0
  Sn  Sn14  1  0.23410000  0.50000000  0.16263000  1.0
  Sn  Sn15  1  0.25000000  0.00000000  0.95642000  1.0
  Sn  Sn16  1  0.25000000  0.50000000  0.95642000  1.0
  Sn  Sn17  1  0.27648000  0.00000000  0.15949000  1.0
  Pd  Pd18  2  0.21462000  0.25061000  0.03091000  1.0
  Pd  Pd19  2  0.25000000  0.25000000  0.86925000  1.0
  Pd  Pd20  1  0.67802000  0.50000000  0.11632000  1.0
  Pd  Pd21  1  0.68061000  0.00000000  0.11414000  1.0
  Pd  Pd22  1  0.75000000  0.00000000  0.95642000  1.0
  Pd  Pd23  1  0.75000000  0.50000000  0.95642000  1.0
  C  C24  1  0.11212000  0.00000000  0.28939000  1.0
  O  O25  1  0.27282000  0.00000000  0.30325000  1.0
