# generated using pymatgen
data_Ti8In8Ni16C
_symmetry_space_group_name_H-M   Pmm2
_cell_length_a   6.14958000
_cell_length_b   8.69682000
_cell_length_c   26.52260000
_cell_angle_alpha   90.00000000
_cell_angle_beta   90.00000000
_cell_angle_gamma   90.00000000
_symmetry_Int_Tables_number   25
_chemical_formula_structural   Ti8In8Ni16C
_chemical_formula_sum   'Ti8 In8 Ni16 C1'
_cell_volume   1418.47613235
_cell_formula_units_Z   1
loop_
 _symmetry_equiv_pos_site_id
 _symmetry_equiv_pos_as_xyz
  1  'x, y, z'
  2  '-x, -y, z'
  3  '-x, y, z'
  4  'x, -y, z'
loop_
 _atom_site_type_symbol
 _atom_site_label
 _atom_site_symmetry_multiplicity
 _atom_site_fract_x
 _atom_site_fract_y
 _atom_site_fract_z
 _atom_site_occupancy
  Ti  Ti0  2  0.50000000  0.24999000  0.95901000  1.0
  Ti  Ti1  2  0.50000000  0.25145000  0.11926000  1.0
  Ti  Ti2  1  0.00000000  0.00000000  0.04906000  1.0
  Ti  Ti3  1  0.00000000  0.00000000  0.87704000  1.0
  Ti  Ti4  1  0.00000000  0.50000000  0.04353000  1.0
  Ti  Ti5  1  0.00000000  0.50000000  0.87704000  1.0
  In  In6  2  0.00000000  0.25001000  0.95901000  1.0
  In  In7  2  0.00000000  0.26659000  0.13686000  1.0
  In  In8  1  0.50000000  0.00000000  0.04035000  1.0
  In  In9  1  0.50000000  0.00000000  0.87704000  1.0
  In  In10  1  0.50000000  0.50000000  0.03763000  1.0
  In  In11  1  0.50000000  0.50000000  0.87704000  1.0
  Ni  Ni12  4  0.24198000  0.25267000  0.04348000  1.0
  Ni  Ni13  4  0.25004000  0.25001000  0.87704000  1.0
  Ni  Ni14  2  0.24996000  0.00000000  0.95901000  1.0
  Ni  Ni15  2  0.25004000  0.50000000  0.95901000  1.0
  Ni  Ni16  2  0.26779000  0.50000000  0.11899000  1.0
  Ni  Ni17  2  0.29249000  0.00000000  0.12790000  1.0
  C  C18  1  0.00000000  0.00000000  0.13006000  1.0
