# generated using pymatgen
data_Zn16Au16C
_symmetry_space_group_name_H-M   'P 1'
_cell_length_a   6.43103000
_cell_length_b   9.09485000
_cell_length_c   26.82110000
_cell_angle_alpha   90.00000000
_cell_angle_beta   90.00000000
_cell_angle_gamma   90.00000000
_symmetry_Int_Tables_number   1
_chemical_formula_structural   Zn16Au16C
_chemical_formula_sum   'Zn16 Au16 C1'
_cell_volume   1568.74610888
_cell_formula_units_Z   1
loop_
 _symmetry_equiv_pos_site_id
 _symmetry_equiv_pos_as_xyz
  1  'x, y, z'
loop_
 _atom_site_type_symbol
 _atom_site_label
 _atom_site_symmetry_multiplicity
 _atom_site_fract_x
 _atom_site_fract_y
 _atom_site_fract_z
 _atom_site_occupancy
  Zn  Zn0  1  0.00000000  0.00000000  0.87284000  1.0
  Zn  Zn1  1  0.00000000  0.75000000  0.95761000  1.0
  Zn  Zn2  1  0.00000000  0.00000000  0.04686000  1.0
  Zn  Zn3  1  0.00000000  0.23752000  0.13746000  1.0
  Zn  Zn4  1  0.00000000  0.50000000  0.87284000  1.0
  Zn  Zn5  1  0.00000000  0.25000000  0.95761000  1.0
  Zn  Zn6  1  0.00000000  0.50000000  0.04325000  1.0
  Zn  Zn7  1  0.00000000  0.76248000  0.13746000  1.0
  Zn  Zn8  1  0.50000000  0.00000000  0.87284000  1.0
  Zn  Zn9  1  0.50000000  0.75000000  0.95761000  1.0
  Zn  Zn10  1  0.50000000  0.00000000  0.04039000  1.0
  Zn  Zn11  1  0.50000000  0.26828000  0.13025000  1.0
  Zn  Zn12  1  0.50000000  0.50000000  0.87284000  1.0
  Zn  Zn13  1  0.50000000  0.25000000  0.95761000  1.0
  Zn  Zn14  1  0.50000000  0.50000000  0.04653000  1.0
  Zn  Zn15  1  0.50000000  0.73172000  0.13025000  1.0
  Au  Au16  1  0.75000000  0.75000000  0.87284000  1.0
  Au  Au17  1  0.75000000  0.00000000  0.95761000  1.0
  Au  Au18  1  0.75557000  0.25391000  0.04193000  1.0
  Au  Au19  1  0.70253000  0.00000000  0.12838000  1.0
  Au  Au20  1  0.75000000  0.25000000  0.87284000  1.0
  Au  Au21  1  0.75000000  0.50000000  0.95761000  1.0
  Au  Au22  1  0.75557000  0.74609000  0.04193000  1.0
  Au  Au23  1  0.77050000  0.50000000  0.13149000  1.0
  Au  Au24  1  0.25000000  0.75000000  0.87284000  1.0
  Au  Au25  1  0.25000000  0.00000000  0.95761000  1.0
  Au  Au26  1  0.24443000  0.25391000  0.04193000  1.0
  Au  Au27  1  0.29747000  0.00000000  0.12838000  1.0
  Au  Au28  1  0.25000000  0.25000000  0.87284000  1.0
  Au  Au29  1  0.25000000  0.50000000  0.95761000  1.0
  Au  Au30  1  0.24443000  0.74609000  0.04193000  1.0
  Au  Au31  1  0.22950000  0.50000000  0.13149000  1.0
  C  C32  1  0.00000000  0.00000000  0.14986000  1.0
