# generated using pymatgen
data_Sc8Ni16Sn8C
_symmetry_space_group_name_H-M   'P 1'
_cell_length_a   8.90130000
_cell_length_b   6.29417000
_cell_length_c   26.67600000
_cell_angle_alpha   90.00000000
_cell_angle_beta   90.00000000
_cell_angle_gamma   90.00000000
_symmetry_Int_Tables_number   1
_chemical_formula_structural   Sc8Ni16Sn8C
_chemical_formula_sum   'Sc8 Ni16 Sn8 C1'
_cell_volume   1494.55745665
_cell_formula_units_Z   1
loop_
 _symmetry_equiv_pos_site_id
 _symmetry_equiv_pos_as_xyz
  1  'x, y, z'
loop_
 _atom_site_type_symbol
 _atom_site_label
 _atom_site_symmetry_multiplicity
 _atom_site_fract_x
 _atom_site_fract_y
 _atom_site_fract_z
 _atom_site_occupancy
  Sc  Sc0  1  0.00000000  0.00000000  0.12513000  1.0
  Sc  Sc1  1  0.25000000  0.50000000  0.04171000  1.0
  Sc  Sc2  1  0.75000000  0.50000000  0.04171000  1.0
  Sc  Sc3  1  0.50000000  0.00000000  0.12513000  1.0
  Sc  Sc4  1  0.50004000  0.00000000  0.95869000  1.0
  Sc  Sc5  1  0.74687000  0.50000000  0.87308000  1.0
  Sc  Sc6  1  0.25312000  0.50000000  0.87308000  1.0
  Sc  Sc7  1  0.99998000  0.00000000  0.95570000  1.0
  Ni  Ni8  1  0.00000000  0.75000000  0.04171000  1.0
  Ni  Ni9  1  0.50000000  0.25000000  0.04171000  1.0
  Ni  Ni10  1  0.00000000  0.25000000  0.04171000  1.0
  Ni  Ni11  1  0.50000000  0.75000000  0.04171000  1.0
  Ni  Ni12  1  0.75000000  0.25000000  0.12513000  1.0
  Ni  Ni13  1  0.25000000  0.75000000  0.12513000  1.0
  Ni  Ni14  1  0.75000000  0.75000000  0.12513000  1.0
  Ni  Ni15  1  0.25000000  0.25000000  0.12513000  1.0
  Ni  Ni16  1  0.49992000  0.73908000  0.88085000  1.0
  Ni  Ni17  1  0.00001000  0.28373000  0.87464000  1.0
  Ni  Ni18  1  0.49992000  0.26092000  0.88085000  1.0
  Ni  Ni19  1  0.00001000  0.71627000  0.87464000  1.0
  Ni  Ni20  1  0.25277000  0.24977000  0.95597000  1.0
  Ni  Ni21  1  0.74726000  0.75017000  0.95593000  1.0
  Ni  Ni22  1  0.25277000  0.75023000  0.95597000  1.0
  Ni  Ni23  1  0.74726000  0.24983000  0.95593000  1.0
  Sn  Sn24  1  0.75000000  0.00000000  0.04171000  1.0
  Sn  Sn25  1  0.00000000  0.50000000  0.12513000  1.0
  Sn  Sn26  1  0.25000000  0.00000000  0.04171000  1.0
  Sn  Sn27  1  0.50000000  0.50000000  0.12513000  1.0
  Sn  Sn28  1  0.26433000  0.00000000  0.86813000  1.0
  Sn  Sn29  1  0.49999000  0.50000000  0.96040000  1.0
  Sn  Sn30  1  0.73565000  0.00000000  0.86811000  1.0
  Sn  Sn31  1  0.00003000  0.50000000  0.95958000  1.0
  C  C32  1  0.00001000  0.00000000  0.86563000  1.0
