data_image0
_chemical_formula_structural       Li4Mg4Ge4Pd4C
_chemical_formula_sum              "Li4 Mg4 Ge4 Pd4 C1"
_cell_length_a       6.25843
_cell_length_b       6.25843
_cell_length_c       24.6938
_cell_angle_alpha    90
_cell_angle_beta     90
_cell_angle_gamma    90

_space_group_name_H-M_alt    "P 1"
_space_group_IT_number       1

loop_
  _space_group_symop_operation_xyz
  'x, y, z'

loop_
  _atom_site_type_symbol
  _atom_site_label
  _atom_site_symmetry_multiplicity
  _atom_site_fract_x
  _atom_site_fract_y
  _atom_site_fract_z
  _atom_site_occupancy
  Li  Li1       1.0  0.25000  0.25000  0.96832  1.0000
  Li  Li2       1.0  0.24644  0.74333  0.12049  1.0000
  Li  Li3       1.0  0.75356  0.25667  0.12049  1.0000
  Li  Li4       1.0  0.75000  0.75000  0.96832  1.0000
  Mg  Mg1       1.0  0.00000  0.50000  0.90496  1.0000
  Mg  Mg2       1.0  0.99998  0.99999  0.03438  1.0000
  Mg  Mg3       1.0  0.50000  0.50000  0.03417  1.0000
  Mg  Mg4       1.0  0.50000  0.00000  0.90496  1.0000
  Ge  Ge1       1.0  0.00000  0.00000  0.90496  1.0000
  Ge  Ge2       1.0  1.00000  0.50000  0.02679  1.0000
  Ge  Ge3       1.0  0.50000  1.00000  0.04969  1.0000
  Ge  Ge4       1.0  0.50000  0.50000  0.90496  1.0000
  Pd  Pd1       1.0  0.75000  0.25000  0.96832  1.0000
  Pd  Pd2       1.0  0.76585  0.73337  0.09365  1.0000
  Pd  Pd3       1.0  0.23415  0.26663  0.09365  1.0000
  Pd  Pd4       1.0  0.25000  0.75000  0.96832  1.0000
  C   C1        1.0  0.00000  0.50000  0.10781  1.0000
