# generated using pymatgen
data_LiMgPdPb
_symmetry_space_group_name_H-M   'P 1'
_cell_length_a   6.68280000
_cell_length_b   4.72545000
_cell_length_c   27.08820000
_cell_angle_alpha   90.00000000
_cell_angle_beta   90.00000000
_cell_angle_gamma   90.00000000
_symmetry_Int_Tables_number   1
_chemical_formula_structural   LiMgPdPb
_chemical_formula_sum   'Li4 Mg4 Pd4 Pb4'
_cell_volume   855.42469475
_cell_formula_units_Z   4
loop_
 _symmetry_equiv_pos_site_id
 _symmetry_equiv_pos_as_xyz
  1  'x, y, z'
loop_
 _atom_site_type_symbol
 _atom_site_label
 _atom_site_symmetry_multiplicity
 _atom_site_fract_x
 _atom_site_fract_y
 _atom_site_fract_z
 _atom_site_occupancy
  Li  Li0  1  0.00000000  0.00000000  0.86916000  1.0
  Li  Li1  1  0.50000000  0.50000000  0.95639000  1.0
  Li  Li2  1  0.98006000  0.00000000  0.04793000  1.0
  Li  Li3  1  0.51311500  0.50000000  0.13824000  1.0
  Mg  Mg4  1  0.25000000  0.00000000  0.95639000  1.0
  Mg  Mg5  1  0.75000000  0.50000000  0.86916000  1.0
  Mg  Mg6  1  0.23149500  0.00000000  0.13213000  1.0
  Mg  Mg7  1  0.74452500  0.50000000  0.04657000  1.0
  Pd  Pd8  1  0.00000000  0.50000000  0.95639000  1.0
  Pd  Pd9  1  0.50000000  0.00000000  0.86916000  1.0
  Pd  Pd10  1  0.99106500  0.50000000  0.12525000  1.0
  Pd  Pd11  1  0.51534000  0.00000000  0.04808000  1.0
  Pb  Pb12  1  0.75000000  0.00000000  0.95639000  1.0
  Pb  Pb13  1  0.25000000  0.50000000  0.86916000  1.0
  Pb  Pb14  1  0.75090000  0.00000000  0.14697000  1.0
  Pb  Pb15  1  0.25619000  0.50000000  0.04509000  1.0
