# generated using pymatgen
data_Sc8Pd24CO
_symmetry_space_group_name_H-M   P4mm
_cell_length_a   8.08515000
_cell_length_b   8.08515000
_cell_length_c   26.06390000
_cell_angle_alpha   90.00000000
_cell_angle_beta   90.00000000
_cell_angle_gamma   90.00000000
_symmetry_Int_Tables_number   99
_chemical_formula_structural   Sc8Pd24CO
_chemical_formula_sum   'Sc8 Pd24 C1 O1'
_cell_volume   1703.78803425
_cell_formula_units_Z   1
loop_
 _symmetry_equiv_pos_site_id
 _symmetry_equiv_pos_as_xyz
  1  'x, y, z'
  2  '-y, x, z'
  3  '-x, -y, z'
  4  'y, -x, z'
  5  '-x, y, z'
  6  'y, x, z'
  7  'x, -y, z'
  8  '-y, -x, z'
loop_
 _atom_site_type_symbol
 _atom_site_label
 _atom_site_symmetry_multiplicity
 _atom_site_fract_x
 _atom_site_fract_y
 _atom_site_fract_z
 _atom_site_occupancy
  Sc  Sc0  4  0.25000000  0.25000000  0.11633000  1.0
  Sc  Sc1  4  0.25000000  0.25000000  0.96122000  1.0
  Pd  Pd2  4  0.00000000  0.25000000  0.03878000  1.0
  Pd  Pd3  4  0.00000000  0.25000000  0.88367000  1.0
  Pd  Pd4  4  0.25000000  0.50000000  0.03878000  1.0
  Pd  Pd5  4  0.25000000  0.50000000  0.88367000  1.0
  Pd  Pd6  2  0.00000000  0.50000000  0.11633000  1.0
  Pd  Pd7  2  0.00000000  0.50000000  0.96122000  1.0
  Pd  Pd8  1  0.00000000  0.00000000  0.11633000  1.0
  Pd  Pd9  1  0.00000000  0.00000000  0.96122000  1.0
  Pd  Pd10  1  0.50000000  0.50000000  0.11633000  1.0
  Pd  Pd11  1  0.50000000  0.50000000  0.96122000  1.0
  C  C12  1  0.00000000  0.00000000  0.18922000  1.0
  O  O13  1  0.00000000  0.00000000  0.23335000  1.0
