data_image0
_chemical_formula_structural       Fe8Co4Ge4CO
_chemical_formula_sum              "Fe8 Co4 Ge4 C1 O1"
_cell_length_a       5.77744
_cell_length_b       5.77744
_cell_length_c       24.3331
_cell_angle_alpha    90
_cell_angle_beta     90
_cell_angle_gamma    90

_space_group_name_H-M_alt    "P 1"
_space_group_IT_number       1

loop_
  _space_group_symop_operation_xyz
  'x, y, z'

loop_
  _atom_site_type_symbol
  _atom_site_label
  _atom_site_symmetry_multiplicity
  _atom_site_fract_x
  _atom_site_fract_y
  _atom_site_fract_z
  _atom_site_occupancy
  Fe  Fe1       1.0  0.25000  0.25000  0.97032  1.0000
  Fe  Fe2       1.0  0.78504  0.71403  0.08831  1.0000
  Fe  Fe3       1.0  0.75000  0.25000  0.97032  1.0000
  Fe  Fe4       1.0  0.22781  0.78877  0.09252  1.0000
  Fe  Fe5       1.0  0.75000  0.75000  0.97032  1.0000
  Fe  Fe6       1.0  0.27534  0.22346  0.09131  1.0000
  Fe  Fe7       1.0  0.25000  0.75000  0.97032  1.0000
  Fe  Fe8       1.0  0.71326  0.27333  0.09274  1.0000
  Co  Co1       1.0  0.00000  0.00000  0.91096  1.0000
  Co  Co2       1.0  0.50000  0.50000  0.91096  1.0000
  Co  Co3       1.0  0.52415  0.97600  0.03160  1.0000
  Co  Co4       1.0  0.02098  0.47886  0.03253  1.0000
  Ge  Ge1       1.0  0.98718  0.01992  0.03224  1.0000
  Ge  Ge2       1.0  0.50000  0.00000  0.91096  1.0000
  Ge  Ge3       1.0  0.00000  0.50000  0.91096  1.0000
  Ge  Ge4       1.0  0.47974  0.51215  0.03243  1.0000
  C   C1        1.0  0.32923  0.15537  0.16147  1.0000
  O   O1        1.0  0.35908  0.11652  0.20804  1.0000
