data_image0
_chemical_formula_structural       Zr8In8Pt16C
_chemical_formula_sum              "Zr8 In8 Pt16 C1"
_cell_length_a       6.69031
_cell_length_b       9.46152
_cell_length_c       27.0961
_cell_angle_alpha    90
_cell_angle_beta     90
_cell_angle_gamma    90

_space_group_name_H-M_alt    "P 1"
_space_group_IT_number       1

loop_
  _space_group_symop_operation_xyz
  'x, y, z'

loop_
  _atom_site_type_symbol
  _atom_site_label
  _atom_site_symmetry_multiplicity
  _atom_site_fract_x
  _atom_site_fract_y
  _atom_site_fract_z
  _atom_site_occupancy
  Zr  Zr1       1.0  0.00000  0.00000  0.86906  1.0000
  Zr  Zr2       1.0  0.50000  0.25000  0.95635  1.0000
  Zr  Zr3       1.0  0.50000  0.75000  0.95635  1.0000
  Zr  Zr4       1.0  0.00000  0.50000  0.86906  1.0000
  Zr  Zr5       1.0  1.00000  0.50000  0.04600  1.0000
  Zr  Zr6       1.0  0.50000  0.75182  0.12309  1.0000
  Zr  Zr7       1.0  0.50000  0.24818  0.12309  1.0000
  Zr  Zr8       1.0  0.00000  1.00000  0.05325  1.0000
  In  In1       1.0  0.00000  0.75000  0.95635  1.0000
  In  In2       1.0  0.50000  0.00000  0.86906  1.0000
  In  In3       1.0  0.00000  0.25000  0.95635  1.0000
  In  In4       1.0  0.50000  0.50000  0.86906  1.0000
  In  In5       1.0  0.00000  0.27004  0.14213  1.0000
  In  In6       1.0  0.50000  0.50000  0.03950  1.0000
  In  In7       1.0  1.00000  0.72996  0.14213  1.0000
  In  In8       1.0  0.50000  1.00000  0.04299  1.0000
  Pt  Pt1       1.0  0.25000  0.00000  0.95635  1.0000
  Pt  Pt2       1.0  0.75000  0.50000  0.95635  1.0000
  Pt  Pt3       1.0  0.75000  0.00000  0.95635  1.0000
  Pt  Pt4       1.0  0.25000  0.50000  0.95635  1.0000
  Pt  Pt5       1.0  0.75000  0.75000  0.86906  1.0000
  Pt  Pt6       1.0  0.25000  0.25000  0.86906  1.0000
  Pt  Pt7       1.0  0.25000  0.75000  0.86906  1.0000
  Pt  Pt8       1.0  0.75000  0.25000  0.86906  1.0000
  Pt  Pt9       1.0  0.27175  0.50000  0.12577  1.0000
  Pt  Pt10      1.0  0.70816  1.00000  0.13781  1.0000
  Pt  Pt11      1.0  0.72825  0.50000  0.12577  1.0000
  Pt  Pt12      1.0  0.29184  0.00000  0.13781  1.0000
  Pt  Pt13      1.0  0.75998  0.24999  0.04241  1.0000
  Pt  Pt14      1.0  0.24002  0.75001  0.04241  1.0000
  Pt  Pt15      1.0  0.24002  0.24999  0.04241  1.0000
  Pt  Pt16      1.0  0.75998  0.75001  0.04241  1.0000
  C   C1        1.0  0.00000  0.00000  0.13931  1.0000
