# generated using pymatgen
data_Hf8In8Ni16CO
_symmetry_space_group_name_H-M   P1
_cell_length_a   6.30953000
_cell_length_b   8.92302000
_cell_length_c   26.69230000
_cell_angle_alpha   90.00000000
_cell_angle_beta   90.00000000
_cell_angle_gamma   90.00000000
_symmetry_Int_Tables_number   1
_chemical_formula_structural   Hf8In8Ni16CO
_chemical_formula_sum   'Hf8 In8 Ni16 C1 O1'
_cell_volume   1502.77815508
_cell_formula_units_Z   1
loop_
 _symmetry_equiv_pos_site_id
 _symmetry_equiv_pos_as_xyz
  1  'x, y, z'
loop_
 _atom_site_type_symbol
 _atom_site_label
 _atom_site_symmetry_multiplicity
 _atom_site_fract_x
 _atom_site_fract_y
 _atom_site_fract_z
 _atom_site_occupancy
  Hf  Hf0  1  0.00000000  0.00000000  0.87464000  1.0
  Hf  Hf1  1  0.00000000  0.50000000  0.87464000  1.0
  Hf  Hf2  1  0.49898000  0.25172000  0.12263000  1.0
  Hf  Hf3  1  0.49900000  0.74825000  0.12267000  1.0
  Hf  Hf4  1  0.50000000  0.25000000  0.95821000  1.0
  Hf  Hf5  1  0.50000000  0.75000000  0.95821000  1.0
  Hf  Hf6  1  0.99791000  0.50001000  0.04291000  1.0
  Hf  Hf7  1  0.99851000  0.00002000  0.04343000  1.0
  In  In8  1  0.00000000  0.25000000  0.95821000  1.0
  In  In9  1  0.00000000  0.75000000  0.95821000  1.0
  In  In10  1  0.49147000  0.99997000  0.04115000  1.0
  In  In11  1  0.49885000  0.50005000  0.03923000  1.0
  In  In12  1  0.50000000  0.00000000  0.87464000  1.0
  In  In13  1  0.50000000  0.50000000  0.87464000  1.0
  In  In14  1  0.99576000  0.74698000  0.13143000  1.0
  In  In15  1  0.99578000  0.25301000  0.13139000  1.0
  Ni  Ni16  1  0.25000000  0.00000000  0.95821000  1.0
  Ni  Ni17  1  0.25000000  0.25000000  0.87464000  1.0
  Ni  Ni18  1  0.25000000  0.50000000  0.95821000  1.0
  Ni  Ni19  1  0.25000000  0.75000000  0.87464000  1.0
  Ni  Ni20  1  0.25109000  0.25096000  0.04418000  1.0
  Ni  Ni21  1  0.25111000  0.74911000  0.04424000  1.0
  Ni  Ni22  1  0.25517000  0.50001000  0.11975000  1.0
  Ni  Ni23  1  0.26002000  0.99994000  0.13023000  1.0
  Ni  Ni24  1  0.73928000  0.50001000  0.12050000  1.0
  Ni  Ni25  1  0.74597000  0.75088000  0.04384000  1.0
  Ni  Ni26  1  0.74604000  0.24914000  0.04382000  1.0
  Ni  Ni27  1  0.75000000  0.00000000  0.95821000  1.0
  Ni  Ni28  1  0.75000000  0.25000000  0.87464000  1.0
  Ni  Ni29  1  0.75000000  0.50000000  0.95821000  1.0
  Ni  Ni30  1  0.75000000  0.75000000  0.87464000  1.0
  Ni  Ni31  1  0.75027000  0.99998000  0.11859000  1.0
  C  C32  1  0.34289000  0.00000000  0.19328000  1.0
  O  O33  1  0.38084000  0.99998000  0.23599000  1.0
