# generated using pymatgen
data_Mg8In8Cu8Pd8C
_symmetry_space_group_name_H-M   'P 1'
_cell_length_a   9.13520000
_cell_length_b   6.45956000
_cell_length_c   26.85140000
_cell_angle_alpha   90.00000000
_cell_angle_beta   90.00000000
_cell_angle_gamma   90.00000000
_symmetry_Int_Tables_number   1
_chemical_formula_structural   Mg8In8Cu8Pd8C
_chemical_formula_sum   'Mg8 In8 Cu8 Pd8 C1'
_cell_volume   1584.48426507
_cell_formula_units_Z   1
loop_
 _symmetry_equiv_pos_site_id
 _symmetry_equiv_pos_as_xyz
  1  'x, y, z'
loop_
 _atom_site_type_symbol
 _atom_site_label
 _atom_site_symmetry_multiplicity
 _atom_site_fract_x
 _atom_site_fract_y
 _atom_site_fract_z
 _atom_site_occupancy
  Mg  Mg0  1  0.00000000  0.25000000  0.04253000  1.0
  Mg  Mg1  1  0.50000000  0.25000000  0.04253000  1.0
  Mg  Mg2  1  0.25000000  0.75000000  0.12758000  1.0
  Mg  Mg3  1  0.75000000  0.75000000  0.12758000  1.0
  Mg  Mg4  1  0.50000000  0.23839000  0.86811000  1.0
  Mg  Mg5  1  0.00000000  0.27701000  0.86821000  1.0
  Mg  Mg6  1  0.74192000  0.74680000  0.95975000  1.0
  Mg  Mg7  1  0.25808000  0.74680000  0.95975000  1.0
  In  In8  1  0.00000000  0.75000000  0.04253000  1.0
  In  In9  1  0.50000000  0.75000000  0.04253000  1.0
  In  In10  1  0.25000000  0.25000000  0.12758000  1.0
  In  In11  1  0.75000000  0.25000000  0.12758000  1.0
  In  In12  1  0.50000000  0.75565000  0.86153000  1.0
  In  In13  1  0.00000000  0.67540000  0.83151000  1.0
  In  In14  1  0.75517000  0.25002000  0.95569000  1.0
  In  In15  1  0.24483000  0.25002000  0.95569000  1.0
  Cu  Cu16  1  0.00000000  0.00000000  0.12758000  1.0
  Cu  Cu17  1  0.50000000  0.00000000  0.12758000  1.0
  Cu  Cu18  1  0.75000000  0.50000000  0.04253000  1.0
  Cu  Cu19  1  0.25000000  0.50000000  0.04253000  1.0
  Cu  Cu20  1  0.50000000  0.00238000  0.95259000  1.0
  Cu  Cu21  1  0.00000000  0.96355000  0.95080000  1.0
  Cu  Cu22  1  0.25685000  0.51796000  0.87569000  1.0
  Cu  Cu23  1  0.74315000  0.51796000  0.87569000  1.0
  Pd  Pd24  1  0.25000000  1.00000000  0.04253000  1.0
  Pd  Pd25  1  0.75000000  1.00000000  0.04253000  1.0
  Pd  Pd26  1  0.50000000  0.50000000  0.12758000  1.0
  Pd  Pd27  1  0.00000000  0.50000000  0.12758000  1.0
  Pd  Pd28  1  0.76672000  0.96644000  0.87715000  1.0
  Pd  Pd29  1  0.23328000  0.96644000  0.87715000  1.0
  Pd  Pd30  1  0.00000000  0.52086000  0.95313000  1.0
  Pd  Pd31  1  0.50000000  0.49517000  0.95434000  1.0
  C  C32  1  0.00000000  0.95438000  0.87766000  1.0
