# generated using pymatgen
data_Mg16Pd16C
_symmetry_space_group_name_H-M   Pmm2
_cell_length_a   6.43103000
_cell_length_b   9.09485000
_cell_length_c   26.82110000
_cell_angle_alpha   90.00000000
_cell_angle_beta   90.00000000
_cell_angle_gamma   90.00000000
_symmetry_Int_Tables_number   25
_chemical_formula_structural   Mg16Pd16C
_chemical_formula_sum   'Mg16 Pd16 C1'
_cell_volume   1568.74610888
_cell_formula_units_Z   1
loop_
 _symmetry_equiv_pos_site_id
 _symmetry_equiv_pos_as_xyz
  1  'x, y, z'
  2  '-x, -y, z'
  3  '-x, y, z'
  4  'x, -y, z'
loop_
 _atom_site_type_symbol
 _atom_site_label
 _atom_site_symmetry_multiplicity
 _atom_site_fract_x
 _atom_site_fract_y
 _atom_site_fract_z
 _atom_site_occupancy
  Mg  Mg0  4  0.24603000  0.25000000  0.04243000  1.0
  Mg  Mg1  4  0.25000000  0.25000000  0.87284000  1.0
  Mg  Mg2  2  0.24142000  0.50000000  0.13018000  1.0
  Mg  Mg3  2  0.25000000  0.00000000  0.95761000  1.0
  Mg  Mg4  2  0.25000000  0.50000000  0.95761000  1.0
  Mg  Mg5  2  0.29339000  0.00000000  0.12776000  1.0
  Pd  Pd6  2  0.00000000  0.22133000  0.12740000  1.0
  Pd  Pd7  2  0.00000000  0.25000000  0.95761000  1.0
  Pd  Pd8  2  0.50000000  0.25000000  0.95761000  1.0
  Pd  Pd9  2  0.50000000  0.26163000  0.12113000  1.0
  Pd  Pd10  1  0.00000000  0.00000000  0.04151000  1.0
  Pd  Pd11  1  0.00000000  0.00000000  0.87284000  1.0
  Pd  Pd12  1  0.00000000  0.50000000  0.04442000  1.0
  Pd  Pd13  1  0.00000000  0.50000000  0.87284000  1.0
  Pd  Pd14  1  0.50000000  0.00000000  0.03956000  1.0
  Pd  Pd15  1  0.50000000  0.00000000  0.87284000  1.0
  Pd  Pd16  1  0.50000000  0.50000000  0.04333000  1.0
  Pd  Pd17  1  0.50000000  0.50000000  0.87284000  1.0
  C  C18  1  0.00000000  0.00000000  0.15594000  1.0
