# generated using pymatgen
data_LiGaCuPd
_symmetry_space_group_name_H-M   Pm
_cell_length_a   6.02537000
_cell_length_b   4.26058000
_cell_length_c   26.39090000
_cell_angle_alpha   90.00000000
_cell_angle_beta   90.00000000
_cell_angle_gamma   90.00000000
_symmetry_Int_Tables_number   6
_chemical_formula_structural   LiGaCuPd
_chemical_formula_sum   'Li4 Ga4 Cu4 Pd4'
_cell_volume   677.49586085
_cell_formula_units_Z   4
loop_
 _symmetry_equiv_pos_site_id
 _symmetry_equiv_pos_as_xyz
  1  'x, y, z'
  2  'x, -y, z'
loop_
 _atom_site_type_symbol
 _atom_site_label
 _atom_site_symmetry_multiplicity
 _atom_site_fract_x
 _atom_site_fract_y
 _atom_site_fract_z
 _atom_site_occupancy
  Li  Li0  1  0.24829000  0.50000000  0.96379000  1.0
  Li  Li1  1  0.25000000  0.50000000  0.12108000  1.0
  Li  Li2  1  0.75000000  0.00000000  0.04036000  1.0
  Li  Li3  1  0.75097000  0.00000000  0.86961000  1.0
  Ga  Ga4  1  0.25000000  0.00000000  0.04036000  1.0
  Ga  Ga5  1  0.25263500  0.00000000  0.87441000  1.0
  Ga  Ga6  1  0.75000000  0.50000000  0.12108000  1.0
  Ga  Ga7  1  0.75095000  0.50000000  0.95911000  1.0
  Cu  Cu8  1  0.00000000  0.00000000  0.12108000  1.0
  Cu  Cu9  1  0.47935000  0.50000000  0.88572000  1.0
  Cu  Cu10  1  0.50000000  0.50000000  0.04036000  1.0
  Cu  Cu11  1  0.99785000  0.00000000  0.95864000  1.0
  Pd  Pd12  1  0.00000000  0.50000000  0.04036000  1.0
  Pd  Pd13  1  0.02033000  0.50000000  0.88454000  1.0
  Pd  Pd14  1  0.50000000  0.00000000  0.12108000  1.0
  Pd  Pd15  1  0.50077000  0.00000000  0.95883000  1.0
