data_image0
_chemical_formula_structural       Li8Al16Ir8C
_chemical_formula_sum              "Li8 Al16 Ir8 C1"
_cell_length_a       6.04348
_cell_length_b       8.54677
_cell_length_c       26.4101
_cell_angle_alpha    90
_cell_angle_beta     90
_cell_angle_gamma    90

_space_group_name_H-M_alt    "P 1"
_space_group_IT_number       1

loop_
  _space_group_symop_operation_xyz
  'x, y, z'

loop_
  _atom_site_type_symbol
  _atom_site_label
  _atom_site_symmetry_multiplicity
  _atom_site_fract_x
  _atom_site_fract_y
  _atom_site_fract_z
  _atom_site_occupancy
  Li  Li1       1.0  0.00000  0.00000  0.87864  1.0000
  Li  Li2       1.0  0.50000  0.25000  0.95955  1.0000
  Li  Li3       1.0  0.50000  0.75000  0.95955  1.0000
  Li  Li4       1.0  0.00000  0.50000  0.87864  1.0000
  Li  Li5       1.0  0.00325  0.49790  0.03940  1.0000
  Li  Li6       1.0  0.48656  0.75000  0.13982  1.0000
  Li  Li7       1.0  0.55970  0.25000  0.17030  1.0000
  Li  Li8       1.0  0.00325  0.00211  0.03940  1.0000
  Al  Al1       1.0  0.25000  0.00000  0.95955  1.0000
  Al  Al2       1.0  0.75000  0.50000  0.95955  1.0000
  Al  Al3       1.0  0.75000  0.00000  0.95955  1.0000
  Al  Al4       1.0  0.25000  0.50000  0.95955  1.0000
  Al  Al5       1.0  0.75000  0.75000  0.87864  1.0000
  Al  Al6       1.0  0.25000  0.25000  0.87864  1.0000
  Al  Al7       1.0  0.25000  0.75000  0.87864  1.0000
  Al  Al8       1.0  0.75000  0.25000  0.87864  1.0000
  Al  Al9       1.0  0.25853  0.48591  0.12236  1.0000
  Al  Al10      1.0  0.75875  0.99145  0.11952  1.0000
  Al  Al11      1.0  0.75875  0.50855  0.11952  1.0000
  Al  Al12      1.0  0.25853  0.01409  0.12236  1.0000
  Al  Al13      1.0  0.73861  0.25000  0.03863  1.0000
  Al  Al14      1.0  0.25155  0.75000  0.04150  1.0000
  Al  Al15      1.0  0.26321  0.25000  0.04476  1.0000
  Al  Al16      1.0  0.75381  0.75000  0.04246  1.0000
  Ir  Ir1       1.0  0.00000  0.75000  0.95955  1.0000
  Ir  Ir2       1.0  0.50000  0.00000  0.87864  1.0000
  Ir  Ir3       1.0  0.00000  0.25000  0.95955  1.0000
  Ir  Ir4       1.0  0.50000  0.50000  0.87864  1.0000
  Ir  Ir5       1.0  0.94330  0.25000  0.11946  1.0000
  Ir  Ir6       1.0  0.49878  0.50536  0.03803  1.0000
  Ir  Ir7       1.0  0.01229  0.75000  0.11754  1.0000
  Ir  Ir8       1.0  0.49879  0.99464  0.03803  1.0000
  C   C1        1.0  0.25848  0.25000  0.13568  1.0000
