# generated using pymatgen
data_Li8Al16Ir8C
_symmetry_space_group_name_H-M   'P 1'
_cell_length_a   8.54677000
_cell_length_b   6.04348000
_cell_length_c   26.41010000
_cell_angle_alpha   90.00000000
_cell_angle_beta   90.00000000
_cell_angle_gamma   90.00000000
_symmetry_Int_Tables_number   1
_chemical_formula_structural   Li8Al16Ir8C
_chemical_formula_sum   'Li8 Al16 Ir8 C1'
_cell_volume   1364.14065353
_cell_formula_units_Z   1
loop_
 _symmetry_equiv_pos_site_id
 _symmetry_equiv_pos_as_xyz
  1  'x, y, z'
loop_
 _atom_site_type_symbol
 _atom_site_label
 _atom_site_symmetry_multiplicity
 _atom_site_fract_x
 _atom_site_fract_y
 _atom_site_fract_z
 _atom_site_occupancy
  Li  Li0  1  0.75000000  0.00000000  0.12136000  1.0
  Li  Li1  1  0.00000000  0.50000000  0.04045000  1.0
  Li  Li2  1  0.50000000  0.50000000  0.04045000  1.0
  Li  Li3  1  0.25000000  0.00000000  0.12136000  1.0
  Li  Li4  1  0.24790000  0.00325000  0.96060000  1.0
  Li  Li5  1  0.50000000  0.48656000  0.86018000  1.0
  Li  Li6  1  0.00000000  0.55970000  0.82970000  1.0
  Li  Li7  1  0.75210000  0.00325000  0.96060000  1.0
  Al  Al8  1  0.75000000  0.25000000  0.04045000  1.0
  Al  Al9  1  0.25000000  0.75000000  0.04045000  1.0
  Al  Al10  1  0.75000000  0.75000000  0.04045000  1.0
  Al  Al11  1  0.25000000  0.25000000  0.04045000  1.0
  Al  Al12  1  0.50000000  0.75000000  0.12136000  1.0
  Al  Al13  1  0.00000000  0.25000000  0.12136000  1.0
  Al  Al14  1  0.50000000  0.25000000  0.12136000  1.0
  Al  Al15  1  0.00000000  0.75000000  0.12136000  1.0
  Al  Al16  1  0.23591000  0.25853000  0.87764000  1.0
  Al  Al17  1  0.74145000  0.75875000  0.88048000  1.0
  Al  Al18  1  0.25855000  0.75875000  0.88048000  1.0
  Al  Al19  1  0.76409000  0.25853000  0.87764000  1.0
  Al  Al20  1  0.00000000  0.73861000  0.96137000  1.0
  Al  Al21  1  0.50000000  0.25155000  0.95850000  1.0
  Al  Al22  1  0.00000000  0.26321000  0.95524000  1.0
  Al  Al23  1  0.50000000  0.75381000  0.95754000  1.0
  Ir  Ir24  1  0.50000000  0.00000000  0.04045000  1.0
  Ir  Ir25  1  0.75000000  0.50000000  0.12136000  1.0
  Ir  Ir26  1  0.00000000  0.00000000  0.04045000  1.0
  Ir  Ir27  1  0.25000000  0.50000000  0.12136000  1.0
  Ir  Ir28  1  0.00000000  0.94330000  0.88054000  1.0
  Ir  Ir29  1  0.25536000  0.49878000  0.96197000  1.0
  Ir  Ir30  1  0.50000000  0.01229000  0.88246000  1.0
  Ir  Ir31  1  0.74464000  0.49878000  0.96197000  1.0
  C  C32  1  0.00000000  0.25848000  0.86432000  1.0
