# generated using pymatgen
data_Li8Al16Ir8C
_symmetry_space_group_name_H-M   Pm
_cell_length_a   6.04348000
_cell_length_b   8.54677000
_cell_length_c   26.41010000
_cell_angle_alpha   90.00000000
_cell_angle_beta   90.00000000
_cell_angle_gamma   90.00000000
_symmetry_Int_Tables_number   6
_chemical_formula_structural   Li8Al16Ir8C
_chemical_formula_sum   'Li8 Al16 Ir8 C1'
_cell_volume   1364.14065353
_cell_formula_units_Z   1
loop_
 _symmetry_equiv_pos_site_id
 _symmetry_equiv_pos_as_xyz
  1  'x, y, z'
  2  'x, -y, z'
loop_
 _atom_site_type_symbol
 _atom_site_label
 _atom_site_symmetry_multiplicity
 _atom_site_fract_x
 _atom_site_fract_y
 _atom_site_fract_z
 _atom_site_occupancy
  Li  Li0  2  0.00000000  0.25000000  0.87864000  1.0
  Li  Li1  2  0.00325000  0.24790000  0.03940000  1.0
  Li  Li2  1  0.48656000  0.50000000  0.13982000  1.0
  Li  Li3  1  0.50000000  0.00000000  0.95955000  1.0
  Li  Li4  1  0.50000000  0.50000000  0.95955000  1.0
  Li  Li5  1  0.55970000  0.00000000  0.17030000  1.0
  Al  Al6  2  0.25000000  0.25000000  0.95955000  1.0
  Al  Al7  2  0.25853000  0.23591000  0.12236000  1.0
  Al  Al8  2  0.75000000  0.25000000  0.95955000  1.0
  Al  Al9  2  0.75875000  0.25855000  0.11952000  1.0
  Al  Al10  1  0.25000000  0.00000000  0.87864000  1.0
  Al  Al11  1  0.25000000  0.50000000  0.87864000  1.0
  Al  Al12  1  0.25155000  0.50000000  0.04150000  1.0
  Al  Al13  1  0.26321000  0.00000000  0.04476000  1.0
  Al  Al14  1  0.73861000  0.00000000  0.03863000  1.0
  Al  Al15  1  0.75000000  0.00000000  0.87864000  1.0
  Al  Al16  1  0.75000000  0.50000000  0.87864000  1.0
  Al  Al17  1  0.75381000  0.50000000  0.04246000  1.0
  Ir  Ir18  2  0.49878000  0.25536000  0.03803000  1.0
  Ir  Ir19  2  0.50000000  0.25000000  0.87864000  1.0
  Ir  Ir20  1  0.00000000  0.00000000  0.95955000  1.0
  Ir  Ir21  1  0.00000000  0.50000000  0.95955000  1.0
  Ir  Ir22  1  0.01229000  0.50000000  0.11754000  1.0
  Ir  Ir23  1  0.94330000  0.00000000  0.11946000  1.0
  C  C24  1  0.25848000  0.00000000  0.13568000  1.0
