data_image0
_chemical_formula_structural       Li24Pd8CO
_chemical_formula_sum              "Li24 Pd8 C1 O1"
_cell_length_a       6.21964
_cell_length_b       8.79589
_cell_length_c       26.5969
_cell_angle_alpha    90
_cell_angle_beta     90
_cell_angle_gamma    90

_space_group_name_H-M_alt    "P 1"
_space_group_IT_number       1

loop_
  _space_group_symop_operation_xyz
  'x, y, z'

loop_
  _atom_site_type_symbol
  _atom_site_label
  _atom_site_symmetry_multiplicity
  _atom_site_fract_x
  _atom_site_fract_y
  _atom_site_fract_z
  _atom_site_occupancy
  Li  Li1       1.0  0.25000  0.00000  0.95866  1.0000
  Li  Li2       1.0  0.75000  0.50000  0.95866  1.0000
  Li  Li3       1.0  0.75000  0.00000  0.95866  1.0000
  Li  Li4       1.0  0.25000  0.50000  0.95866  1.0000
  Li  Li5       1.0  0.75000  0.75000  0.87598  1.0000
  Li  Li6       1.0  0.25000  0.25000  0.87598  1.0000
  Li  Li7       1.0  0.25000  0.75000  0.87598  1.0000
  Li  Li8       1.0  0.75000  0.25000  0.87598  1.0000
  Li  Li9       1.0  0.00000  0.75000  0.95866  1.0000
  Li  Li10      1.0  0.50000  0.00000  0.87598  1.0000
  Li  Li11      1.0  0.00000  0.25000  0.95866  1.0000
  Li  Li12      1.0  0.50000  0.50000  0.87598  1.0000
  Li  Li13      1.0  0.27081  0.50229  0.13278  1.0000
  Li  Li14      1.0  0.72919  0.99771  0.13278  1.0000
  Li  Li15      1.0  0.72919  0.50229  0.13278  1.0000
  Li  Li16      1.0  0.27081  0.99771  0.13278  1.0000
  Li  Li17      1.0  0.74819  0.25000  0.03950  1.0000
  Li  Li18      1.0  0.24815  0.75000  0.03876  1.0000
  Li  Li19      1.0  0.25181  0.25000  0.03950  1.0000
  Li  Li20      1.0  0.75185  0.75000  0.03876  1.0000
  Li  Li21      1.0  0.00000  0.25000  0.11948  1.0000
  Li  Li22      1.0  0.50000  0.50000  0.04441  1.0000
  Li  Li23      1.0  0.00000  0.75000  0.11694  1.0000
  Li  Li24      1.0  0.50000  1.00000  0.04441  1.0000
  Pd  Pd1       1.0  0.00000  0.00000  0.87598  1.0000
  Pd  Pd2       1.0  0.50000  0.25000  0.95866  1.0000
  Pd  Pd3       1.0  0.50000  0.75000  0.95866  1.0000
  Pd  Pd4       1.0  0.00000  0.50000  0.87598  1.0000
  Pd  Pd5       1.0  0.00000  0.49899  0.05063  1.0000
  Pd  Pd6       1.0  0.50000  0.75000  0.11421  1.0000
  Pd  Pd7       1.0  0.50000  0.25000  0.12375  1.0000
  Pd  Pd8       1.0  1.00000  0.00101  0.05063  1.0000
  C   C1        1.0  0.50000  0.25000  0.19695  1.0000
  O   O1        1.0  0.50000  0.25000  0.24069  1.0000
