data_image0
_chemical_formula_structural       Zn8Ni16Ge8CO
_chemical_formula_sum              "Zn8 Ni16 Ge8 C1 O1"
_cell_length_a       5.88011
_cell_length_b       8.31574
_cell_length_c       26.2368
_cell_angle_alpha    90
_cell_angle_beta     90
_cell_angle_gamma    90

_space_group_name_H-M_alt    "P 1"
_space_group_IT_number       1

loop_
  _space_group_symop_operation_xyz
  'x, y, z'

loop_
  _atom_site_type_symbol
  _atom_site_label
  _atom_site_symmetry_multiplicity
  _atom_site_fract_x
  _atom_site_fract_y
  _atom_site_fract_z
  _atom_site_occupancy
  Zn  Zn1       1.0  0.00000  0.00000  0.88114  1.0000
  Zn  Zn2       1.0  0.50000  0.25000  0.96038  1.0000
  Zn  Zn3       1.0  0.50000  0.75000  0.96038  1.0000
  Zn  Zn4       1.0  0.00000  0.50000  0.88114  1.0000
  Zn  Zn5       1.0  0.99856  0.50002  0.03604  1.0000
  Zn  Zn6       1.0  0.50181  0.74212  0.12345  1.0000
  Zn  Zn7       1.0  0.50180  0.25794  0.12337  1.0000
  Zn  Zn8       1.0  0.01030  0.00002  0.03887  1.0000
  Ni  Ni1       1.0  0.25000  0.00000  0.96038  1.0000
  Ni  Ni2       1.0  0.75000  0.50000  0.96038  1.0000
  Ni  Ni3       1.0  0.75000  0.00000  0.96038  1.0000
  Ni  Ni4       1.0  0.25000  0.50000  0.96038  1.0000
  Ni  Ni5       1.0  0.75000  0.75000  0.88114  1.0000
  Ni  Ni6       1.0  0.25000  0.25000  0.88114  1.0000
  Ni  Ni7       1.0  0.25000  0.75000  0.88114  1.0000
  Ni  Ni8       1.0  0.75000  0.25000  0.88114  1.0000
  Ni  Ni9       1.0  0.23565  0.50018  0.11190  1.0000
  Ni  Ni10      1.0  0.75676  0.99985  0.11034  1.0000
  Ni  Ni11      1.0  0.75572  0.50017  0.11153  1.0000
  Ni  Ni12      1.0  0.24888  0.99982  0.12358  1.0000
  Ni  Ni13      1.0  0.74666  0.24689  0.03727  1.0000
  Ni  Ni14      1.0  0.25241  0.75198  0.04112  1.0000
  Ni  Ni15      1.0  0.25229  0.24814  0.04105  1.0000
  Ni  Ni16      1.0  0.74655  0.75323  0.03734  1.0000
  Ge  Ge1       1.0  0.00000  0.75000  0.96038  1.0000
  Ge  Ge2       1.0  0.50000  0.00000  0.88114  1.0000
  Ge  Ge3       1.0  0.00000  0.25000  0.96038  1.0000
  Ge  Ge4       1.0  0.50000  0.50000  0.88114  1.0000
  Ge  Ge5       1.0  0.98693  0.25450  0.11938  1.0000
  Ge  Ge6       1.0  0.49783  0.49995  0.03901  1.0000
  Ge  Ge7       1.0  0.98698  0.74552  0.11941  1.0000
  Ge  Ge8       1.0  0.49490  0.00007  0.03988  1.0000
  C   C1        1.0  0.28769  0.99999  0.19073  1.0000
  O   O1        1.0  0.30181  0.99995  0.23466  1.0000
