# generated using pymatgen
data_Zn8Ni16Ge8CO
_symmetry_space_group_name_H-M   P1
_cell_length_a   5.88011000
_cell_length_b   8.31574000
_cell_length_c   26.23680000
_cell_angle_alpha   90.00000000
_cell_angle_beta   90.00000000
_cell_angle_gamma   90.00000000
_symmetry_Int_Tables_number   1
_chemical_formula_structural   Zn8Ni16Ge8CO
_chemical_formula_sum   'Zn8 Ni16 Ge8 C1 O1'
_cell_volume   1282.91303415
_cell_formula_units_Z   1
loop_
 _symmetry_equiv_pos_site_id
 _symmetry_equiv_pos_as_xyz
  1  'x, y, z'
loop_
 _atom_site_type_symbol
 _atom_site_label
 _atom_site_symmetry_multiplicity
 _atom_site_fract_x
 _atom_site_fract_y
 _atom_site_fract_z
 _atom_site_occupancy
  Zn  Zn0  1  0.00000000  0.00000000  0.88114000  1.0
  Zn  Zn1  1  0.00000000  0.50000000  0.88114000  1.0
  Zn  Zn2  1  0.01030000  0.00002000  0.03887000  1.0
  Zn  Zn3  1  0.50000000  0.25000000  0.96038000  1.0
  Zn  Zn4  1  0.50000000  0.75000000  0.96038000  1.0
  Zn  Zn5  1  0.50180000  0.25794000  0.12337000  1.0
  Zn  Zn6  1  0.50181000  0.74212000  0.12345000  1.0
  Zn  Zn7  1  0.99856000  0.50002000  0.03604000  1.0
  Ni  Ni8  1  0.23565000  0.50018000  0.11190000  1.0
  Ni  Ni9  1  0.24888000  0.99982000  0.12358000  1.0
  Ni  Ni10  1  0.25000000  0.00000000  0.96038000  1.0
  Ni  Ni11  1  0.25000000  0.25000000  0.88114000  1.0
  Ni  Ni12  1  0.25000000  0.50000000  0.96038000  1.0
  Ni  Ni13  1  0.25000000  0.75000000  0.88114000  1.0
  Ni  Ni14  1  0.25229000  0.24814000  0.04105000  1.0
  Ni  Ni15  1  0.25241000  0.75198000  0.04112000  1.0
  Ni  Ni16  1  0.74655000  0.75323000  0.03734000  1.0
  Ni  Ni17  1  0.74666000  0.24689000  0.03727000  1.0
  Ni  Ni18  1  0.75000000  0.00000000  0.96038000  1.0
  Ni  Ni19  1  0.75000000  0.25000000  0.88114000  1.0
  Ni  Ni20  1  0.75000000  0.50000000  0.96038000  1.0
  Ni  Ni21  1  0.75000000  0.75000000  0.88114000  1.0
  Ni  Ni22  1  0.75572000  0.50017000  0.11153000  1.0
  Ni  Ni23  1  0.75676000  0.99985000  0.11034000  1.0
  Ge  Ge24  1  0.00000000  0.25000000  0.96038000  1.0
  Ge  Ge25  1  0.00000000  0.75000000  0.96038000  1.0
  Ge  Ge26  1  0.49490000  0.00007000  0.03988000  1.0
  Ge  Ge27  1  0.49783000  0.49995000  0.03901000  1.0
  Ge  Ge28  1  0.50000000  0.00000000  0.88114000  1.0
  Ge  Ge29  1  0.50000000  0.50000000  0.88114000  1.0
  Ge  Ge30  1  0.98693000  0.25450000  0.11938000  1.0
  Ge  Ge31  1  0.98698000  0.74552000  0.11941000  1.0
  C  C32  1  0.28769000  0.99999000  0.19073000  1.0
  O  O33  1  0.30181000  0.99995000  0.23466000  1.0
