# generated using pymatgen
data_Al8V8Fe16CO
_symmetry_space_group_name_H-M   'P 1'
_cell_length_a   8.07854000
_cell_length_b   5.71239000
_cell_length_c   26.05890000
_cell_angle_alpha   90.00000000
_cell_angle_beta   90.00000000
_cell_angle_gamma   90.00000000
_symmetry_Int_Tables_number   1
_chemical_formula_structural   Al8V8Fe16CO
_chemical_formula_sum   'Al8 V8 Fe16 C1 O1'
_cell_volume   1202.56015259
_cell_formula_units_Z   1
loop_
 _symmetry_equiv_pos_site_id
 _symmetry_equiv_pos_as_xyz
  1  'x, y, z'
loop_
 _atom_site_type_symbol
 _atom_site_label
 _atom_site_symmetry_multiplicity
 _atom_site_fract_x
 _atom_site_fract_y
 _atom_site_fract_z
 _atom_site_occupancy
  Al  Al0  1  0.00000000  0.00000000  0.11625000  1.0
  Al  Al1  1  0.25000000  0.50000000  0.03875000  1.0
  Al  Al2  1  0.75000000  0.50000000  0.03875000  1.0
  Al  Al3  1  0.50000000  0.00000000  0.11625000  1.0
  Al  Al4  1  0.49955000  0.00000000  0.96180000  1.0
  Al  Al5  1  0.74998000  0.50000000  0.87624000  1.0
  Al  Al6  1  0.25002000  0.50000000  0.87123000  1.0
  Al  Al7  1  0.00044000  0.00000000  0.96180000  1.0
  V  V8  1  0.75000000  0.00000000  0.03875000  1.0
  V  V9  1  0.00000000  0.50000000  0.11625000  1.0
  V  V10  1  0.25000000  0.00000000  0.03875000  1.0
  V  V11  1  0.50000000  0.50000000  0.11625000  1.0
  V  V12  1  0.24997000  0.00000000  0.88589000  1.0
  V  V13  1  0.49985000  0.50000000  0.95944000  1.0
  V  V14  1  0.75003000  0.00000000  0.88566000  1.0
  V  V15  1  0.00015000  0.50000000  0.95945000  1.0
  Fe  Fe16  1  0.00000000  0.75000000  0.03875000  1.0
  Fe  Fe17  1  0.50000000  0.25000000  0.03875000  1.0
  Fe  Fe18  1  0.00000000  0.25000000  0.03875000  1.0
  Fe  Fe19  1  0.50000000  0.75000000  0.03875000  1.0
  Fe  Fe20  1  0.75000000  0.25000000  0.11625000  1.0
  Fe  Fe21  1  0.25000000  0.75000000  0.11625000  1.0
  Fe  Fe22  1  0.75000000  0.75000000  0.11625000  1.0
  Fe  Fe23  1  0.25000000  0.25000000  0.11625000  1.0
  Fe  Fe24  1  0.50039000  0.75197000  0.88303000  1.0
  Fe  Fe25  1  0.99960000  0.24813000  0.88304000  1.0
  Fe  Fe26  1  0.50039000  0.24803000  0.88303000  1.0
  Fe  Fe27  1  0.99960000  0.75187000  0.88304000  1.0
  Fe  Fe28  1  0.25000000  0.25482000  0.95938000  1.0
  Fe  Fe29  1  0.74999000  0.74808000  0.96005000  1.0
  Fe  Fe30  1  0.25000000  0.74518000  0.95938000  1.0
  Fe  Fe31  1  0.74999000  0.25192000  0.96005000  1.0
  C  C32  1  0.25007000  0.50000000  0.79162000  1.0
  O  O33  1  0.25004000  0.50000000  0.74755000  1.0
