# generated using pymatgen
data_Al8V8Fe16CO
_symmetry_space_group_name_H-M   Pm
_cell_length_a   8.07854000
_cell_length_b   5.71239000
_cell_length_c   26.05890000
_cell_angle_alpha   90.00000000
_cell_angle_beta   90.00000000
_cell_angle_gamma   90.00000000
_symmetry_Int_Tables_number   6
_chemical_formula_structural   Al8V8Fe16CO
_chemical_formula_sum   'Al8 V8 Fe16 C1 O1'
_cell_volume   1202.56015259
_cell_formula_units_Z   1
loop_
 _symmetry_equiv_pos_site_id
 _symmetry_equiv_pos_as_xyz
  1  'x, y, z'
  2  'x, -y, z'
loop_
 _atom_site_type_symbol
 _atom_site_label
 _atom_site_symmetry_multiplicity
 _atom_site_fract_x
 _atom_site_fract_y
 _atom_site_fract_z
 _atom_site_occupancy
  Al  Al0  1  0.00000000  0.00000000  0.88375000  1.0
  Al  Al1  1  0.00044000  0.00000000  0.03820000  1.0
  Al  Al2  1  0.25000000  0.50000000  0.96125000  1.0
  Al  Al3  1  0.25002000  0.50000000  0.12877000  1.0
  Al  Al4  1  0.49955000  0.00000000  0.03820000  1.0
  Al  Al5  1  0.50000000  0.00000000  0.88375000  1.0
  Al  Al6  1  0.74998000  0.50000000  0.12376000  1.0
  Al  Al7  1  0.75000000  0.50000000  0.96125000  1.0
  V  V8  1  0.00000000  0.50000000  0.88375000  1.0
  V  V9  1  0.00015000  0.50000000  0.04055000  1.0
  V  V10  1  0.24997000  0.00000000  0.11411000  1.0
  V  V11  1  0.25000000  0.00000000  0.96125000  1.0
  V  V12  1  0.49985000  0.50000000  0.04056000  1.0
  V  V13  1  0.50000000  0.50000000  0.88375000  1.0
  V  V14  1  0.75000000  0.00000000  0.96125000  1.0
  V  V15  1  0.75003000  0.00000000  0.11434000  1.0
  Fe  Fe16  2  0.00000000  0.25000000  0.96125000  1.0
  Fe  Fe17  2  0.25000000  0.25000000  0.88375000  1.0
  Fe  Fe18  2  0.25000000  0.25482000  0.04062000  1.0
  Fe  Fe19  2  0.50000000  0.25000000  0.96125000  1.0
  Fe  Fe20  2  0.50039000  0.24803000  0.11697000  1.0
  Fe  Fe21  2  0.74999000  0.25192000  0.03995000  1.0
  Fe  Fe22  2  0.75000000  0.25000000  0.88375000  1.0
  Fe  Fe23  2  0.99960000  0.24813000  0.11696000  1.0
  C  C24  1  0.25007000  0.50000000  0.20838000  1.0
  O  O25  1  0.25004000  0.50000000  0.25245000  1.0
