# generated using pymatgen
data_Li4Ge4Pd4Au4CO
_symmetry_space_group_name_H-M   'P 1'
_cell_length_a   6.30991000
_cell_length_b   6.30991000
_cell_length_c   24.73240000
_cell_angle_alpha   90.00000000
_cell_angle_beta   90.00000000
_cell_angle_gamma   90.00000000
_symmetry_Int_Tables_number   1
_chemical_formula_structural   Li4Ge4Pd4Au4CO
_chemical_formula_sum   'Li4 Ge4 Pd4 Au4 C1 O1'
_cell_volume   984.71962078
_cell_formula_units_Z   1
loop_
 _symmetry_equiv_pos_site_id
 _symmetry_equiv_pos_as_xyz
  1  'x, y, z'
loop_
 _atom_site_type_symbol
 _atom_site_label
 _atom_site_symmetry_multiplicity
 _atom_site_fract_x
 _atom_site_fract_y
 _atom_site_fract_z
 _atom_site_occupancy
  Li  Li0  1  0.25000500  0.74999500  0.03189000  1
  Li  Li1  1  0.75109000  0.75028000  0.89933000  1
  Li  Li2  1  0.24972000  0.24891000  0.89933000  1
  Li  Li3  1  0.75000500  0.24999500  0.03189000  1
  Ge  Ge4  1  0.25000000  0.24999000  0.03189000  1
  Ge  Ge5  1  0.75045000  0.24955000  0.90001000  1
  Ge  Ge6  1  0.24994500  0.75005500  0.91616000  1
  Ge  Ge7  1  0.75001000  0.75000000  0.03189000  1
  Pd  Pd8  1  0.50000000  0.99999000  0.09567000  1
  Pd  Pd9  1  0.99280500  0.00719500  0.95834000  1
  Pd  Pd10  1  0.50763000  0.49237000  0.95794000  1
  Pd  Pd11  1  0.00001000  0.50000000  0.09567000  1
  Au  Au12  1  0.00000500  0.99999500  0.09567000  1
  Au  Au13  1  0.51395000  0.01365000  0.96535000  1
  Au  Au14  1  0.98635000  0.48605000  0.96535000  1
  Au  Au15  1  0.50000500  0.49999500  0.09567000  1
  C  C16  1  0.24845000  0.75155000  0.83855000  1
  O  O17  1  0.24815000  0.75185000  0.79126000  1
