data_image0
_chemical_formula_structural       Li8Cu8Pd8Pb8C
_chemical_formula_sum              "Li8 Cu8 Pd8 Pb8 C1"
_cell_length_a       6.46272
_cell_length_b       9.13966
_cell_length_c       26.8547
_cell_angle_alpha    90
_cell_angle_beta     90
_cell_angle_gamma    90

_space_group_name_H-M_alt    "P 1"
_space_group_IT_number       1

loop_
  _space_group_symop_operation_xyz
  'x, y, z'

loop_
  _atom_site_type_symbol
  _atom_site_label
  _atom_site_symmetry_multiplicity
  _atom_site_fract_x
  _atom_site_fract_y
  _atom_site_fract_z
  _atom_site_occupancy
  Li  Li1       1.0  0.00000  0.25000  0.95746  1.0000
  Li  Li2       1.0  0.00000  0.75000  0.95746  1.0000
  Li  Li3       1.0  0.50000  0.50000  0.87237  1.0000
  Li  Li4       1.0  0.50000  0.00000  0.87237  1.0000
  Li  Li5       1.0  0.04565  0.72175  0.13674  1.0000
  Li  Li6       1.0  0.04566  0.27825  0.13674  1.0000
  Li  Li7       1.0  0.52463  0.00000  0.05078  1.0000
  Li  Li8       1.0  0.53189  0.50000  0.04250  1.0000
  Cu  Cu1       1.0  0.00000  0.00000  0.87237  1.0000
  Cu  Cu2       1.0  0.00000  0.50000  0.87237  1.0000
  Cu  Cu3       1.0  0.50000  0.75000  0.95746  1.0000
  Cu  Cu4       1.0  0.50000  0.25000  0.95746  1.0000
  Cu  Cu5       1.0  0.96625  0.50000  0.05609  1.0000
  Cu  Cu6       1.0  0.96907  1.00000  0.04252  1.0000
  Cu  Cu7       1.0  0.50986  0.21414  0.12437  1.0000
  Cu  Cu8       1.0  0.50986  0.78586  0.12437  1.0000
  Pd  Pd1       1.0  0.25000  0.00000  0.95746  1.0000
  Pd  Pd2       1.0  0.25000  0.50000  0.95746  1.0000
  Pd  Pd3       1.0  0.75000  0.25000  0.87237  1.0000
  Pd  Pd4       1.0  0.75000  0.75000  0.87237  1.0000
  Pd  Pd5       1.0  0.30193  0.50001  0.11413  1.0000
  Pd  Pd6       1.0  0.19802  1.00000  0.11978  1.0000
  Pd  Pd7       1.0  0.75828  0.74693  0.04219  1.0000
  Pd  Pd8       1.0  0.75827  0.25307  0.04219  1.0000
  Pb  Pb1       1.0  0.75000  0.00000  0.95746  1.0000
  Pb  Pb2       1.0  0.75000  0.50000  0.95746  1.0000
  Pb  Pb3       1.0  0.25000  0.25000  0.87237  1.0000
  Pb  Pb4       1.0  0.25000  0.75000  0.87237  1.0000
  Pb  Pb5       1.0  0.70707  0.49999  0.14648  1.0000
  Pb  Pb6       1.0  0.80888  0.00001  0.17225  1.0000
  Pb  Pb7       1.0  0.24304  0.74335  0.04092  1.0000
  Pb  Pb8       1.0  0.24304  0.25665  0.04092  1.0000
  C   C1        1.0  0.50299  0.00000  0.13293  1.0000
