# generated using pymatgen
data_Li8Y8Ge8Pb8CO
_symmetry_space_group_name_H-M   Pmm2
_cell_length_a   8.55406000
_cell_length_b   9.86128000
_cell_length_c   26.49120000
_cell_angle_alpha   90.00000000
_cell_angle_beta   90.00000000
_cell_angle_gamma   90.00000000
_symmetry_Int_Tables_number   25
_chemical_formula_structural   Li8Y8Ge8Pb8CO
_chemical_formula_sum   'Li8 Y8 Ge8 Pb8 C1 O1'
_cell_volume   2234.63817608
_cell_formula_units_Z   1
loop_
 _symmetry_equiv_pos_site_id
 _symmetry_equiv_pos_as_xyz
  1  'x, y, z'
  2  '-x, -y, z'
  3  '-x, y, z'
  4  'x, -y, z'
loop_
 _atom_site_type_symbol
 _atom_site_label
 _atom_site_symmetry_multiplicity
 _atom_site_fract_x
 _atom_site_fract_y
 _atom_site_fract_z
 _atom_site_occupancy
  Li  Li0  1  0.00000000  0.00000000  0.04084000  1.0
  Li  Li1  1  0.00000000  0.00000000  0.86951000  1.0
  Li  Li2  1  0.00000000  0.50000000  0.04084000  1.0
  Li  Li3  1  0.00000000  0.50000000  0.86733000  1.0
  Li  Li4  1  0.50000000  0.00000000  0.04084000  1.0
  Li  Li5  1  0.50000000  0.00000000  0.86736000  1.0
  Li  Li6  1  0.50000000  0.50000000  0.04084000  1.0
  Li  Li7  1  0.50000000  0.50000000  0.86720000  1.0
  Y  Y8  2  0.00000000  0.25000000  0.12252000  1.0
  Y  Y9  2  0.00000000  0.25069000  0.95920000  1.0
  Y  Y10  2  0.50000000  0.25000000  0.12252000  1.0
  Y  Y11  2  0.50000000  0.25010000  0.95891000  1.0
  Ge  Ge12  4  0.24959000  0.25459000  0.87817000  1.0
  Ge  Ge13  4  0.25000000  0.25000000  0.04084000  1.0
  Pb  Pb14  2  0.25000000  0.00000000  0.12252000  1.0
  Pb  Pb15  2  0.25000000  0.50000000  0.12252000  1.0
  Pb  Pb16  2  0.25017000  0.00000000  0.95084000  1.0
  Pb  Pb17  2  0.25035000  0.50000000  0.95234000  1.0
  C  C18  1  0.00000000  0.00000000  0.79035000  1.0
  O  O19  1  0.00000000  0.00000000  0.74736000  1.0
