# generated using pymatgen
data_Y8In8Cu8Pd8C
_symmetry_space_group_name_H-M   'P 1'
_cell_length_a   9.57344000
_cell_length_b   6.76944000
_cell_length_c   27.18010000
_cell_angle_alpha   90.00000000
_cell_angle_beta   90.00000000
_cell_angle_gamma   90.00000000
_symmetry_Int_Tables_number   1
_chemical_formula_structural   Y8In8Cu8Pd8C
_chemical_formula_sum   'Y8 In8 Cu8 Pd8 C1'
_cell_volume   1761.45605685
_cell_formula_units_Z   1
loop_
 _symmetry_equiv_pos_site_id
 _symmetry_equiv_pos_as_xyz
  1  'x, y, z'
loop_
 _atom_site_type_symbol
 _atom_site_label
 _atom_site_symmetry_multiplicity
 _atom_site_fract_x
 _atom_site_fract_y
 _atom_site_fract_z
 _atom_site_occupancy
  Y  Y0  1  0.75000000  0.75000000  0.04403000  1.0
  Y  Y1  1  0.25000000  0.75000000  0.04403000  1.0
  Y  Y2  1  0.00000000  0.25000000  0.13208000  1.0
  Y  Y3  1  0.50000000  0.25000000  0.13208000  1.0
  Y  Y4  1  0.24217000  0.74907000  0.86396000  1.0
  Y  Y5  1  0.75783000  0.74907000  0.86396000  1.0
  Y  Y6  1  0.50000000  0.25089000  0.95674000  1.0
  Y  Y7  1  0.00000000  0.25247000  0.95367000  1.0
  In  In8  1  0.75000000  0.25000000  0.04403000  1.0
  In  In9  1  0.25000000  0.25000000  0.04403000  1.0
  In  In10  1  0.00000000  0.75000000  0.13208000  1.0
  In  In11  1  0.50000000  0.75000000  0.13208000  1.0
  In  In12  1  0.25569000  0.25084000  0.86671000  1.0
  In  In13  1  0.74431000  0.25084000  0.86671000  1.0
  In  In14  1  0.50000000  0.75288000  0.95393000  1.0
  In  In15  1  0.00000000  0.75344000  0.95297000  1.0
  Cu  Cu16  1  0.75000000  0.00000000  0.13208000  1.0
  Cu  Cu17  1  0.25000000  0.00000000  0.13208000  1.0
  Cu  Cu18  1  0.50000000  0.50000000  0.04403000  1.0
  Cu  Cu19  1  0.00000000  0.50000000  0.04403000  1.0
  Cu  Cu20  1  0.25316000  0.98874000  0.95411000  1.0
  Cu  Cu21  1  0.74684000  0.98874000  0.95411000  1.0
  Cu  Cu22  1  0.00000000  0.44685000  0.85813000  1.0
  Cu  Cu23  1  0.50000000  0.47837000  0.86898000  1.0
  Pd  Pd24  1  0.00000000  0.00000000  0.04403000  1.0
  Pd  Pd25  1  0.50000000  1.00000000  0.04403000  1.0
  Pd  Pd26  1  0.25000000  0.50000000  0.13208000  1.0
  Pd  Pd27  1  0.75000000  0.50000000  0.13208000  1.0
  Pd  Pd28  1  0.50000000  0.01579000  0.87205000  1.0
  Pd  Pd29  1  0.00000000  0.04983000  0.86260000  1.0
  Pd  Pd30  1  0.74657000  0.51143000  0.95550000  1.0
  Pd  Pd31  1  0.25343000  0.51143000  0.95550000  1.0
  C  C32  1  0.00000000  0.73254000  0.86280000  1.0
