# generated using pymatgen
data_Li8Mg8In8Sn8C
_symmetry_space_group_name_H-M   'P 1'
_cell_length_a   9.92662000
_cell_length_b   7.01918000
_cell_length_c   27.44500000
_cell_angle_alpha   90.00000000
_cell_angle_beta   90.00000000
_cell_angle_gamma   90.00000000
_symmetry_Int_Tables_number   1
_chemical_formula_structural   Li8Mg8In8Sn8C
_chemical_formula_sum   'Li8 Mg8 In8 Sn8 C1'
_cell_volume   1912.27792543
_cell_formula_units_Z   1
loop_
 _symmetry_equiv_pos_site_id
 _symmetry_equiv_pos_as_xyz
  1  'x, y, z'
loop_
 _atom_site_type_symbol
 _atom_site_label
 _atom_site_symmetry_multiplicity
 _atom_site_fract_x
 _atom_site_fract_y
 _atom_site_fract_z
 _atom_site_occupancy
  Li  Li0  1  0.75002000  0.75000000  0.04521000  1.0
  Li  Li1  1  0.24998000  0.75000000  0.04521000  1.0
  Li  Li2  1  0.00000000  0.25000000  0.13563000  1.0
  Li  Li3  1  0.50000000  0.25000000  0.13563000  1.0
  Li  Li4  1  0.21981000  0.74488000  0.85791000  1.0
  Li  Li5  1  0.78019000  0.74488000  0.85791000  1.0
  Li  Li6  1  0.50000000  0.24232000  0.95048000  1.0
  Li  Li7  1  0.00000000  0.25898000  0.95701000  1.0
  Mg  Mg8  1  0.75002000  0.25000000  0.04521000  1.0
  Mg  Mg9  1  0.24998000  0.25000000  0.04521000  1.0
  Mg  Mg10  1  0.00000000  0.75000000  0.13563000  1.0
  Mg  Mg11  1  0.50000000  0.75000000  0.13563000  1.0
  Mg  Mg12  1  0.27021000  0.26512000  0.85467000  1.0
  Mg  Mg13  1  0.72979000  0.26512000  0.85467000  1.0
  Mg  Mg14  1  0.50000000  0.75212000  0.95179000  1.0
  Mg  Mg15  1  0.00000000  0.69694000  0.93255000  1.0
  In  In16  1  0.75002000  0.00000000  0.13563000  1.0
  In  In17  1  0.24998000  0.00000000  0.13563000  1.0
  In  In18  1  0.50000000  0.50000000  0.04521000  1.0
  In  In19  1  0.00000000  0.50000000  0.04521000  1.0
  In  In20  1  0.24220000  0.00381000  0.95013000  1.0
  In  In21  1  0.75780000  0.00381000  0.95013000  1.0
  In  In22  1  0.00000000  0.50276000  0.80330000  1.0
  In  In23  1  0.50000000  0.54636000  0.84546000  1.0
  Sn  Sn24  1  0.00000000  0.00000000  0.04521000  1.0
  Sn  Sn25  1  0.50000000  0.00000000  0.04521000  1.0
  Sn  Sn26  1  0.25002000  0.50000000  0.13563000  1.0
  Sn  Sn27  1  0.74998000  0.50000000  0.13563000  1.0
  Sn  Sn28  1  0.50000000  0.98278000  0.85821000  1.0
  Sn  Sn29  1  0.00000000  0.05375000  0.85685000  1.0
  Sn  Sn30  1  0.74232000  0.48773000  0.95138000  1.0
  Sn  Sn31  1  0.25768000  0.48773000  0.95138000  1.0
  C  C32  1  0.00000000  0.74938000  0.85382000  1.0
