# generated using pymatgen
data_Li8Mg8In8Sn8C
_symmetry_space_group_name_H-M   Pm
_cell_length_a   7.01918000
_cell_length_b   9.92662000
_cell_length_c   27.44500000
_cell_angle_alpha   90.00000000
_cell_angle_beta   90.00000000
_cell_angle_gamma   90.00000000
_symmetry_Int_Tables_number   6
_chemical_formula_structural   Li8Mg8In8Sn8C
_chemical_formula_sum   'Li8 Mg8 In8 Sn8 C1'
_cell_volume   1912.27792543
_cell_formula_units_Z   1
loop_
 _symmetry_equiv_pos_site_id
 _symmetry_equiv_pos_as_xyz
  1  'x, y, z'
  2  'x, -y, z'
loop_
 _atom_site_type_symbol
 _atom_site_label
 _atom_site_symmetry_multiplicity
 _atom_site_fract_x
 _atom_site_fract_y
 _atom_site_fract_z
 _atom_site_occupancy
  Li  Li0  2  0.74488000  0.21981000  0.14209000  1.0
  Li  Li1  2  0.75000000  0.24998000  0.95479000  1.0
  Li  Li2  1  0.24232000  0.50000000  0.04952000  1.0
  Li  Li3  1  0.25000000  0.00000000  0.86437000  1.0
  Li  Li4  1  0.25000000  0.50000000  0.86437000  1.0
  Li  Li5  1  0.25898000  0.00000000  0.04299000  1.0
  Mg  Mg6  2  0.25000000  0.24998000  0.95479000  1.0
  Mg  Mg7  2  0.26512000  0.27021000  0.14533000  1.0
  Mg  Mg8  1  0.69694000  0.00000000  0.06745000  1.0
  Mg  Mg9  1  0.75000000  0.00000000  0.86437000  1.0
  Mg  Mg10  1  0.75000000  0.50000000  0.86437000  1.0
  Mg  Mg11  1  0.75212000  0.50000000  0.04821000  1.0
  In  In12  2  0.00000000  0.24998000  0.86437000  1.0
  In  In13  2  0.00381000  0.24220000  0.04987000  1.0
  In  In14  1  0.50000000  0.00000000  0.95479000  1.0
  In  In15  1  0.50000000  0.50000000  0.95479000  1.0
  In  In16  1  0.50276000  0.00000000  0.19670000  1.0
  In  In17  1  0.54636000  0.50000000  0.15454000  1.0
  Sn  Sn18  2  0.48773000  0.25768000  0.04862000  1.0
  Sn  Sn19  2  0.50000000  0.25002000  0.86437000  1.0
  Sn  Sn20  1  0.00000000  0.00000000  0.95479000  1.0
  Sn  Sn21  1  0.00000000  0.50000000  0.95479000  1.0
  Sn  Sn22  1  0.05375000  0.00000000  0.14315000  1.0
  Sn  Sn23  1  0.98278000  0.50000000  0.14179000  1.0
  C  C24  1  0.74938000  0.00000000  0.14618000  1.0
