# generated using pymatgen
data_Li8Cu8Ge8Pd8CO
_symmetry_space_group_name_H-M   'P 1'
_cell_length_a   8.54512000
_cell_length_b   6.04231000
_cell_length_c   26.40880000
_cell_angle_alpha   90.00000000
_cell_angle_beta   90.00000000
_cell_angle_gamma   90.00000000
_symmetry_Int_Tables_number   1
_chemical_formula_structural   Li8Cu8Ge8Pd8CO
_chemical_formula_sum   'Li8 Cu8 Ge8 Pd8 C1 O1'
_cell_volume   1363.54613424
_cell_formula_units_Z   1
loop_
 _symmetry_equiv_pos_site_id
 _symmetry_equiv_pos_as_xyz
  1  'x, y, z'
loop_
 _atom_site_type_symbol
 _atom_site_label
 _atom_site_symmetry_multiplicity
 _atom_site_fract_x
 _atom_site_fract_y
 _atom_site_fract_z
 _atom_site_occupancy
  Li  Li0  1  0.75000000  0.25000000  0.04045000  1.0
  Li  Li1  1  0.25000000  0.25000000  0.04045000  1.0
  Li  Li2  1  0.00000000  0.75000000  0.12134000  1.0
  Li  Li3  1  0.50000000  0.75000000  0.12134000  1.0
  Li  Li4  1  0.25215000  0.24777000  0.86399000  1.0
  Li  Li5  1  0.74785000  0.24777000  0.86399000  1.0
  Li  Li6  1  0.50000000  0.74691000  0.96441000  1.0
  Li  Li7  1  0.00000000  0.74203000  0.96271000  1.0
  Cu  Cu8  1  0.75000000  0.00000000  0.12134000  1.0
  Cu  Cu9  1  0.25000000  0.00000000  0.12134000  1.0
  Cu  Cu10  1  0.50000000  0.50000000  0.04045000  1.0
  Cu  Cu11  1  0.00000000  0.50000000  0.04045000  1.0
  Cu  Cu12  1  0.24976000  0.00859000  0.95592000  1.0
  Cu  Cu13  1  0.75024000  0.00859000  0.95592000  1.0
  Cu  Cu14  1  0.00000000  0.52095000  0.87667000  1.0
  Cu  Cu15  1  0.50000000  0.53335000  0.88423000  1.0
  Ge  Ge16  1  0.75000000  0.75000000  0.04045000  1.0
  Ge  Ge17  1  0.25000000  0.75000000  0.04045000  1.0
  Ge  Ge18  1  0.00000000  0.25000000  0.12134000  1.0
  Ge  Ge19  1  0.50000000  0.25000000  0.12134000  1.0
  Ge  Ge20  1  0.25408000  0.76323000  0.87330000  1.0
  Ge  Ge21  1  0.74592000  0.76323000  0.87330000  1.0
  Ge  Ge22  1  0.50000000  0.25916000  0.96056000  1.0
  Ge  Ge23  1  0.00000000  0.24979000  0.96042000  1.0
  Pd  Pd24  1  0.00000000  0.00000000  0.04045000  1.0
  Pd  Pd25  1  0.50000000  0.00000000  0.04045000  1.0
  Pd  Pd26  1  0.25000000  0.50000000  0.12134000  1.0
  Pd  Pd27  1  0.75000000  0.50000000  0.12134000  1.0
  Pd  Pd28  1  0.50000000  0.99177000  0.88652000  1.0
  Pd  Pd29  1  0.00000000  0.97693000  0.88513000  1.0
  Pd  Pd30  1  0.75524000  0.49199000  0.95025000  1.0
  Pd  Pd31  1  0.24476000  0.49199000  0.95025000  1.0
  C  C32  1  0.00000000  0.39064000  0.81222000  1.0
  O  O33  1  0.00000000  0.35793000  0.76903000  1.0
