# generated using pymatgen
data_Li8Cu8Ge8Pd8CO
_symmetry_space_group_name_H-M   Pm
_cell_length_a   6.04231000
_cell_length_b   8.54512000
_cell_length_c   26.40880000
_cell_angle_alpha   90.00000000
_cell_angle_beta   90.00000000
_cell_angle_gamma   90.00000000
_symmetry_Int_Tables_number   6
_chemical_formula_structural   Li8Cu8Ge8Pd8CO
_chemical_formula_sum   'Li8 Cu8 Ge8 Pd8 C1 O1'
_cell_volume   1363.54613424
_cell_formula_units_Z   1
loop_
 _symmetry_equiv_pos_site_id
 _symmetry_equiv_pos_as_xyz
  1  'x, y, z'
  2  'x, -y, z'
loop_
 _atom_site_type_symbol
 _atom_site_label
 _atom_site_symmetry_multiplicity
 _atom_site_fract_x
 _atom_site_fract_y
 _atom_site_fract_z
 _atom_site_occupancy
  Li  Li0  2  0.24777000  0.25215000  0.13601000  1.0
  Li  Li1  2  0.25000000  0.25000000  0.95955000  1.0
  Li  Li2  1  0.74203000  0.00000000  0.03729000  1.0
  Li  Li3  1  0.74691000  0.50000000  0.03559000  1.0
  Li  Li4  1  0.75000000  0.00000000  0.87866000  1.0
  Li  Li5  1  0.75000000  0.50000000  0.87866000  1.0
  Cu  Cu6  2  0.00000000  0.25000000  0.87866000  1.0
  Cu  Cu7  2  0.00859000  0.24976000  0.04408000  1.0
  Cu  Cu8  1  0.50000000  0.00000000  0.95955000  1.0
  Cu  Cu9  1  0.50000000  0.50000000  0.95955000  1.0
  Cu  Cu10  1  0.52095000  0.00000000  0.12333000  1.0
  Cu  Cu11  1  0.53335000  0.50000000  0.11577000  1.0
  Ge  Ge12  2  0.75000000  0.25000000  0.95955000  1.0
  Ge  Ge13  2  0.76323000  0.25408000  0.12670000  1.0
  Ge  Ge14  1  0.24979000  0.00000000  0.03958000  1.0
  Ge  Ge15  1  0.25000000  0.00000000  0.87866000  1.0
  Ge  Ge16  1  0.25000000  0.50000000  0.87866000  1.0
  Ge  Ge17  1  0.25916000  0.50000000  0.03944000  1.0
  Pd  Pd18  2  0.49199000  0.24476000  0.04975000  1.0
  Pd  Pd19  2  0.50000000  0.25000000  0.87866000  1.0
  Pd  Pd20  1  0.00000000  0.00000000  0.95955000  1.0
  Pd  Pd21  1  0.00000000  0.50000000  0.95955000  1.0
  Pd  Pd22  1  0.97693000  0.00000000  0.11487000  1.0
  Pd  Pd23  1  0.99177000  0.50000000  0.11348000  1.0
  C  C24  1  0.39064000  0.00000000  0.18778000  1.0
  O  O25  1  0.35793000  0.00000000  0.23097000  1.0
