# generated using pymatgen
data_ZrInPt2
_symmetry_space_group_name_H-M   'P 1'
_cell_length_a   4.73076000
_cell_length_b   6.69031000
_cell_length_c   27.09610000
_cell_angle_alpha   90.00000000
_cell_angle_beta   90.00000000
_cell_angle_gamma   90.00000000
_symmetry_Int_Tables_number   1
_chemical_formula_structural   ZrInPt2
_chemical_formula_sum   'Zr4 In4 Pt8'
_cell_volume   857.59836438
_cell_formula_units_Z   4
loop_
 _symmetry_equiv_pos_site_id
 _symmetry_equiv_pos_as_xyz
  1  'x, y, z'
loop_
 _atom_site_type_symbol
 _atom_site_label
 _atom_site_symmetry_multiplicity
 _atom_site_fract_x
 _atom_site_fract_y
 _atom_site_fract_z
 _atom_site_occupancy
  Zr  Zr0  1  0.00000000  0.00000000  0.13094000  1.0
  Zr  Zr1  1  0.50000000  0.50000000  0.04365000  1.0
  Zr  Zr2  1  0.00000000  0.00000000  0.95421000  1.0
  Zr  Zr3  1  0.50000000  0.50000000  0.87460000  1.0
  In  In4  1  0.50000000  0.00000000  0.04365000  1.0
  In  In5  1  0.00000000  0.50000000  0.13094000  1.0
  In  In6  1  0.50000000  0.00000000  0.86046000  1.0
  In  In7  1  0.00000000  0.50000000  0.95912000  1.0
  Pt  Pt8  1  0.00000000  0.75000000  0.04365000  1.0
  Pt  Pt9  1  0.00000000  0.25000000  0.04365000  1.0
  Pt  Pt10  1  0.50000000  0.25000000  0.13094000  1.0
  Pt  Pt11  1  0.50000000  0.75000000  0.13094000  1.0
  Pt  Pt12  1  0.00000000  0.73838000  0.87422000  1.0
  Pt  Pt13  1  0.00000000  0.26162000  0.87422000  1.0
  Pt  Pt14  1  0.50000000  0.24390000  0.95568000  1.0
  Pt  Pt15  1  0.50000000  0.75610000  0.95568000  1.0
