# generated using pymatgen
data_FePt3
_symmetry_space_group_name_H-M   Pmm2
_cell_length_a   3.94427000
_cell_length_b   5.57804000
_cell_length_c   24.18350000
_cell_angle_alpha   90.00000000
_cell_angle_beta   90.00000000
_cell_angle_gamma   90.00000000
_symmetry_Int_Tables_number   25
_chemical_formula_structural   FePt3
_chemical_formula_sum   'Fe2 Pt6'
_cell_volume   532.06833772
_cell_formula_units_Z   2
loop_
 _symmetry_equiv_pos_site_id
 _symmetry_equiv_pos_as_xyz
  1  'x, y, z'
  2  '-x, -y, z'
  3  '-x, y, z'
  4  'x, -y, z'
loop_
 _atom_site_type_symbol
 _atom_site_label
 _atom_site_symmetry_multiplicity
 _atom_site_fract_x
 _atom_site_fract_y
 _atom_site_fract_z
 _atom_site_occupancy
  Fe  Fe0  1  0.00000000  0.00000000  0.91350000  1.0
  Fe  Fe1  1  0.00000000  0.50000000  0.02883000  1.0
  Pt  Pt2  2  0.50000000  0.25000000  0.08650000  1.0
  Pt  Pt3  2  0.50000000  0.25000000  0.97117000  1.0
  Pt  Pt4  1  0.00000000  0.00000000  0.02883000  1.0
  Pt  Pt5  1  0.00000000  0.50000000  0.91350000  1.0
