# generated using pymatgen
data_Y8In8Cu8Sn8C
_symmetry_space_group_name_H-M   'P 1'
_cell_length_a   8.82850000
_cell_length_b   9.14612000
_cell_length_c   26.63560000
_cell_angle_alpha   90.00000000
_cell_angle_beta   90.00000000
_cell_angle_gamma   90.00000000
_symmetry_Int_Tables_number   1
_chemical_formula_structural   Y8In8Cu8Sn8C
_chemical_formula_sum   'Y8 In8 Cu8 Sn8 C1'
_cell_volume   2150.73201930
_cell_formula_units_Z   1
loop_
 _symmetry_equiv_pos_site_id
 _symmetry_equiv_pos_as_xyz
  1  'x, y, z'
loop_
 _atom_site_type_symbol
 _atom_site_label
 _atom_site_symmetry_multiplicity
 _atom_site_fract_x
 _atom_site_fract_y
 _atom_site_fract_z
 _atom_site_occupancy
  Y  Y0  1  0.00000000  0.25530000  0.87001000  1.0
  Y  Y1  1  0.00000000  0.25000000  0.04152000  1.0
  Y  Y2  1  0.50000000  0.27068000  0.87145000  1.0
  Y  Y3  1  0.50000000  0.25000000  0.04152000  1.0
  Y  Y4  1  0.00000000  0.74470000  0.87001000  1.0
  Y  Y5  1  0.00000000  0.75000000  0.04152000  1.0
  Y  Y6  1  0.50000000  0.72932000  0.87145000  1.0
  Y  Y7  1  0.50000000  0.75000000  0.04152000  1.0
  In  In8  1  0.00000000  0.00000000  0.96150000  1.0
  In  In9  1  0.00000000  0.00000000  0.12456000  1.0
  In  In10  1  0.50000000  0.00000000  0.95119000  1.0
  In  In11  1  0.50000000  0.00000000  0.12456000  1.0
  In  In12  1  0.00000000  0.50000000  0.95957000  1.0
  In  In13  1  0.00000000  0.50000000  0.12456000  1.0
  In  In14  1  0.50000000  0.50000000  0.96061000  1.0
  In  In15  1  0.50000000  0.50000000  0.12456000  1.0
  Cu  Cu16  1  0.77202000  0.00000000  0.88326000  1.0
  Cu  Cu17  1  0.75000000  0.00000000  0.04152000  1.0
  Cu  Cu18  1  0.22798000  0.00000000  0.88326000  1.0
  Cu  Cu19  1  0.25000000  0.00000000  0.04152000  1.0
  Cu  Cu20  1  0.74169000  0.50000000  0.88141000  1.0
  Cu  Cu21  1  0.75000000  0.50000000  0.04152000  1.0
  Cu  Cu22  1  0.25831000  0.50000000  0.88141000  1.0
  Cu  Cu23  1  0.25000000  0.50000000  0.04152000  1.0
  Sn  Sn24  1  0.74970000  0.25217000  0.95630000  1.0
  Sn  Sn25  1  0.75000000  0.25000000  0.12456000  1.0
  Sn  Sn26  1  0.25030000  0.25217000  0.95630000  1.0
  Sn  Sn27  1  0.25000000  0.25000000  0.12456000  1.0
  Sn  Sn28  1  0.74970000  0.74783000  0.95630000  1.0
  Sn  Sn29  1  0.75000000  0.75000000  0.12456000  1.0
  Sn  Sn30  1  0.25030000  0.74783000  0.95630000  1.0
  Sn  Sn31  1  0.25000000  0.75000000  0.12456000  1.0
  C  C32  1  0.00000000  0.00000000  0.86943000  1.0
