# generated using pymatgen
data_Y8In8Cu8Sn8C
_symmetry_space_group_name_H-M   Pmm2
_cell_length_a   8.82850000
_cell_length_b   9.14612000
_cell_length_c   26.63560000
_cell_angle_alpha   90.00000000
_cell_angle_beta   90.00000000
_cell_angle_gamma   90.00000000
_symmetry_Int_Tables_number   25
_chemical_formula_structural   Y8In8Cu8Sn8C
_chemical_formula_sum   'Y8 In8 Cu8 Sn8 C1'
_cell_volume   2150.73201930
_cell_formula_units_Z   1
loop_
 _symmetry_equiv_pos_site_id
 _symmetry_equiv_pos_as_xyz
  1  'x, y, z'
  2  '-x, -y, z'
  3  '-x, y, z'
  4  'x, -y, z'
loop_
 _atom_site_type_symbol
 _atom_site_label
 _atom_site_symmetry_multiplicity
 _atom_site_fract_x
 _atom_site_fract_y
 _atom_site_fract_z
 _atom_site_occupancy
  Y  Y0  2  0.00000000  0.25000000  0.04152000  1.0
  Y  Y1  2  0.00000000  0.25530000  0.87001000  1.0
  Y  Y2  2  0.50000000  0.25000000  0.04152000  1.0
  Y  Y3  2  0.50000000  0.27068000  0.87145000  1.0
  In  In4  1  0.00000000  0.00000000  0.12456000  1.0
  In  In5  1  0.00000000  0.00000000  0.96150000  1.0
  In  In6  1  0.00000000  0.50000000  0.12456000  1.0
  In  In7  1  0.00000000  0.50000000  0.95957000  1.0
  In  In8  1  0.50000000  0.00000000  0.12456000  1.0
  In  In9  1  0.50000000  0.00000000  0.95119000  1.0
  In  In10  1  0.50000000  0.50000000  0.12456000  1.0
  In  In11  1  0.50000000  0.50000000  0.96061000  1.0
  Cu  Cu12  2  0.22798000  0.00000000  0.88326000  1.0
  Cu  Cu13  2  0.25000000  0.00000000  0.04152000  1.0
  Cu  Cu14  2  0.25000000  0.50000000  0.04152000  1.0
  Cu  Cu15  2  0.25831000  0.50000000  0.88141000  1.0
  Sn  Sn16  4  0.25000000  0.25000000  0.12456000  1.0
  Sn  Sn17  4  0.25030000  0.25217000  0.95630000  1.0
  C  C18  1  0.00000000  0.00000000  0.86943000  1.0
