# generated using pymatgen
data_Hf8Al8Cu16C
_symmetry_space_group_name_H-M   'P 1'
_cell_length_a   8.79589000
_cell_length_b   6.21964000
_cell_length_c   26.59690000
_cell_angle_alpha   90.00000000
_cell_angle_beta   90.00000000
_cell_angle_gamma   90.00000000
_symmetry_Int_Tables_number   1
_chemical_formula_structural   Hf8Al8Cu16C
_chemical_formula_sum   'Hf8 Al8 Cu16 C1'
_cell_volume   1455.04377030
_cell_formula_units_Z   1
loop_
 _symmetry_equiv_pos_site_id
 _symmetry_equiv_pos_as_xyz
  1  'x, y, z'
loop_
 _atom_site_type_symbol
 _atom_site_label
 _atom_site_symmetry_multiplicity
 _atom_site_fract_x
 _atom_site_fract_y
 _atom_site_fract_z
 _atom_site_occupancy
  Hf  Hf0  1  0.75000000  0.00000000  0.12402000  1.0
  Hf  Hf1  1  0.00000000  0.50000000  0.04134000  1.0
  Hf  Hf2  1  0.50000000  0.50000000  0.04134000  1.0
  Hf  Hf3  1  0.25000000  0.00000000  0.12402000  1.0
  Hf  Hf4  1  0.25417000  0.00616000  0.95461000  1.0
  Hf  Hf5  1  0.50000000  0.45127000  0.87830000  1.0
  Hf  Hf6  1  0.00000000  0.48604000  0.88366000  1.0
  Hf  Hf7  1  0.74583000  0.00616000  0.95461000  1.0
  Al  Al8  1  0.50000000  0.00000000  0.04134000  1.0
  Al  Al9  1  0.75000000  0.50000000  0.12402000  1.0
  Al  Al10  1  0.00000000  0.00000000  0.04134000  1.0
  Al  Al11  1  0.25000000  0.50000000  0.12402000  1.0
  Al  Al12  1  0.00000000  0.91551000  0.86120000  1.0
  Al  Al13  1  0.25137000  0.49954000  0.95954000  1.0
  Al  Al14  1  0.50000000  0.99001000  0.87257000  1.0
  Al  Al15  1  0.74863000  0.49954000  0.95954000  1.0
  Cu  Cu16  1  0.75000000  0.25000000  0.04134000  1.0
  Cu  Cu17  1  0.25000000  0.75000000  0.04134000  1.0
  Cu  Cu18  1  0.75000000  0.75000000  0.04134000  1.0
  Cu  Cu19  1  0.25000000  0.25000000  0.04134000  1.0
  Cu  Cu20  1  0.50000000  0.75000000  0.12402000  1.0
  Cu  Cu21  1  0.00000000  0.25000000  0.12402000  1.0
  Cu  Cu22  1  0.50000000  0.25000000  0.12402000  1.0
  Cu  Cu23  1  0.00000000  0.75000000  0.12402000  1.0
  Cu  Cu24  1  0.23338000  0.19873000  0.85953000  1.0
  Cu  Cu25  1  0.74014000  0.72861000  0.87616000  1.0
  Cu  Cu26  1  0.25986000  0.72861000  0.87616000  1.0
  Cu  Cu27  1  0.76662000  0.19873000  0.85953000  1.0
  Cu  Cu28  1  0.00000000  0.77025000  0.96222000  1.0
  Cu  Cu29  1  0.50000000  0.24799000  0.96276000  1.0
  Cu  Cu30  1  0.00000000  0.23531000  0.96353000  1.0
  Cu  Cu31  1  0.50000000  0.74226000  0.95658000  1.0
  C  C32  1  0.00000000  0.20939000  0.84261000  1.0
