# generated using pymatgen
data_Hf8Al8Cu16C
_symmetry_space_group_name_H-M   Pm
_cell_length_a   6.21964000
_cell_length_b   8.79589000
_cell_length_c   26.59690000
_cell_angle_alpha   90.00000000
_cell_angle_beta   90.00000000
_cell_angle_gamma   90.00000000
_symmetry_Int_Tables_number   6
_chemical_formula_structural   Hf8Al8Cu16C
_chemical_formula_sum   'Hf8 Al8 Cu16 C1'
_cell_volume   1455.04377030
_cell_formula_units_Z   1
loop_
 _symmetry_equiv_pos_site_id
 _symmetry_equiv_pos_as_xyz
  1  'x, y, z'
  2  'x, -y, z'
loop_
 _atom_site_type_symbol
 _atom_site_label
 _atom_site_symmetry_multiplicity
 _atom_site_fract_x
 _atom_site_fract_y
 _atom_site_fract_z
 _atom_site_occupancy
  Hf  Hf0  2  0.00000000  0.25000000  0.87598000  1.0
  Hf  Hf1  2  0.00616000  0.25417000  0.04539000  1.0
  Hf  Hf2  1  0.45127000  0.50000000  0.12170000  1.0
  Hf  Hf3  1  0.48604000  0.00000000  0.11634000  1.0
  Hf  Hf4  1  0.50000000  0.00000000  0.95866000  1.0
  Hf  Hf5  1  0.50000000  0.50000000  0.95866000  1.0
  Al  Al6  2  0.49954000  0.25137000  0.04046000  1.0
  Al  Al7  2  0.50000000  0.25000000  0.87598000  1.0
  Al  Al8  1  0.00000000  0.00000000  0.95866000  1.0
  Al  Al9  1  0.00000000  0.50000000  0.95866000  1.0
  Al  Al10  1  0.91551000  0.00000000  0.13880000  1.0
  Al  Al11  1  0.99001000  0.50000000  0.12743000  1.0
  Cu  Cu12  2  0.19873000  0.23338000  0.14047000  1.0
  Cu  Cu13  2  0.25000000  0.25000000  0.95866000  1.0
  Cu  Cu14  2  0.72861000  0.25986000  0.12384000  1.0
  Cu  Cu15  2  0.75000000  0.25000000  0.95866000  1.0
  Cu  Cu16  1  0.23531000  0.00000000  0.03647000  1.0
  Cu  Cu17  1  0.24799000  0.50000000  0.03724000  1.0
  Cu  Cu18  1  0.25000000  0.00000000  0.87598000  1.0
  Cu  Cu19  1  0.25000000  0.50000000  0.87598000  1.0
  Cu  Cu20  1  0.74226000  0.50000000  0.04342000  1.0
  Cu  Cu21  1  0.75000000  0.00000000  0.87598000  1.0
  Cu  Cu22  1  0.75000000  0.50000000  0.87598000  1.0
  Cu  Cu23  1  0.77025000  0.00000000  0.03778000  1.0
  C  C24  1  0.20939000  0.00000000  0.15739000  1.0
