# generated using pymatgen
data_Li4Y4In4Ge4C
_symmetry_space_group_name_H-M   'P 1'
_cell_length_a   8.57642000
_cell_length_b   6.30439000
_cell_length_c   24.70800000
_cell_angle_alpha   90.00000000
_cell_angle_beta   90.00000000
_cell_angle_gamma   90.00000000
_symmetry_Int_Tables_number   1
_chemical_formula_structural   Li4Y4In4Ge4C
_chemical_formula_sum   'Li4 Y4 In4 Ge4 C1'
_cell_volume   1335.93923592
_cell_formula_units_Z   1
loop_
 _symmetry_equiv_pos_site_id
 _symmetry_equiv_pos_as_xyz
  1  'x, y, z'
loop_
 _atom_site_type_symbol
 _atom_site_label
 _atom_site_symmetry_multiplicity
 _atom_site_fract_x
 _atom_site_fract_y
 _atom_site_fract_z
 _atom_site_occupancy
  Li  Li0  1  0.25000000  0.72689000  0.03176000  1.0
  Li  Li1  1  0.15882000  0.19281000  0.90170000  1.0
  Li  Li2  1  0.75000000  0.72689000  0.03176000  1.0
  Li  Li3  1  0.84118000  0.19281000  0.90170000  1.0
  Y  Y4  1  0.25000000  0.22689000  0.03176000  1.0
  Y  Y5  1  0.22334000  0.65123000  0.90374000  1.0
  Y  Y6  1  0.75000000  0.22689000  0.03176000  1.0
  Y  Y7  1  0.77666000  0.65123000  0.90374000  1.0
  In  In8  1  0.00000000  0.50000000  0.09527000  1.0
  In  In9  1  0.00000000  0.92534000  0.97809000  1.0
  In  In10  1  0.50000000  0.50000000  0.09527000  1.0
  In  In11  1  0.50000000  0.93087000  0.96808000  1.0
  Ge  Ge12  1  0.00000000  0.00000000  0.09527000  1.0
  Ge  Ge13  1  0.00000000  0.45332000  0.97395000  1.0
  Ge  Ge14  1  0.50000000  0.00000000  0.09527000  1.0
  Ge  Ge15  1  0.50000000  0.41669000  0.94956000  1.0
  C  C16  1  0.00000000  0.46022000  0.88899000  1.0
