# generated using pymatgen
data_Li4Y4In4Ge4C
_symmetry_space_group_name_H-M   Pm
_cell_length_a   6.30439000
_cell_length_b   8.57642000
_cell_length_c   24.70800000
_cell_angle_alpha   90.00000000
_cell_angle_beta   90.00000000
_cell_angle_gamma   90.00000000
_symmetry_Int_Tables_number   6
_chemical_formula_structural   Li4Y4In4Ge4C
_chemical_formula_sum   'Li4 Y4 In4 Ge4 C1'
_cell_volume   1335.93923592
_cell_formula_units_Z   1
loop_
 _symmetry_equiv_pos_site_id
 _symmetry_equiv_pos_as_xyz
  1  'x, y, z'
  2  'x, -y, z'
loop_
 _atom_site_type_symbol
 _atom_site_label
 _atom_site_symmetry_multiplicity
 _atom_site_fract_x
 _atom_site_fract_y
 _atom_site_fract_z
 _atom_site_occupancy
  Li  Li0  2  0.19281000  0.15882000  0.09830000  1.0
  Li  Li1  2  0.72689000  0.25000000  0.96824000  1.0
  Y  Y2  2  0.22689000  0.25000000  0.96824000  1.0
  Y  Y3  2  0.65123000  0.22334000  0.09626000  1.0
  In  In4  1  0.50000000  0.00000000  0.90473000  1.0
  In  In5  1  0.50000000  0.50000000  0.90473000  1.0
  In  In6  1  0.92534000  0.00000000  0.02191000  1.0
  In  In7  1  0.93087000  0.50000000  0.03192000  1.0
  Ge  Ge8  1  0.00000000  0.00000000  0.90473000  1.0
  Ge  Ge9  1  0.00000000  0.50000000  0.90473000  1.0
  Ge  Ge10  1  0.41669000  0.50000000  0.05044000  1.0
  Ge  Ge11  1  0.45332000  0.00000000  0.02605000  1.0
  C  C12  1  0.46022000  0.00000000  0.11101000  1.0
