# generated using pymatgen
data_Li8In8Pd8Pt8CO
_symmetry_space_group_name_H-M   Pm
_cell_length_a   6.39502000
_cell_length_b   9.04392000
_cell_length_c   26.78290000
_cell_angle_alpha   90.00000000
_cell_angle_beta   90.00000000
_cell_angle_gamma   90.00000000
_symmetry_Int_Tables_number   6
_chemical_formula_structural   Li8In8Pd8Pt8CO
_chemical_formula_sum   'Li8 In8 Pd8 Pt8 C1 O1'
_cell_volume   1549.01712422
_cell_formula_units_Z   1
loop_
 _symmetry_equiv_pos_site_id
 _symmetry_equiv_pos_as_xyz
  1  'x, y, z'
  2  'x, -y, z'
loop_
 _atom_site_type_symbol
 _atom_site_label
 _atom_site_symmetry_multiplicity
 _atom_site_fract_x
 _atom_site_fract_y
 _atom_site_fract_z
 _atom_site_occupancy
  Li  Li0  2  -0.00000000  0.24999000  0.95779000  1.0
  Li  Li1  2  0.00712000  0.24194000  0.13088000  1.0
  Li  Li2  1  0.49856000  0.00000000  0.03918000  1.0
  Li  Li3  1  0.50000000  0.00000000  0.87337000  1.0
  Li  Li4  1  0.50000000  0.50000000  0.87337000  1.0
  Li  Li5  1  0.50199000  0.50000000  0.04205000  1.0
  In  In6  2  0.49632000  0.25233000  0.13327000  1.0
  In  In7  2  0.50000000  0.25001000  0.95779000  1.0
  In  In8  1  -0.00000000  0.00000000  0.87337000  1.0
  In  In9  1  0.00000000  0.50000000  0.87337000  1.0
  In  In10  1  0.99529000  0.50000000  0.04097000  1.0
  In  In11  1  0.99726000  0.00000000  0.04105000  1.0
  Pd  Pd12  2  0.25000000  0.24999000  0.87337000  1.0
  Pd  Pd13  2  0.25016000  0.25122000  0.04276000  1.0
  Pd  Pd14  1  0.73022000  0.00000000  0.12000000  1.0
  Pd  Pd15  1  0.75000000  0.00000000  0.95779000  1.0
  Pd  Pd16  1  0.75000000  0.50000000  0.95779000  1.0
  Pd  Pd17  1  0.76710000  0.50000000  0.13131000  1.0
  Pt  Pt18  2  0.74492000  0.25251000  0.04483000  1.0
  Pt  Pt19  2  0.75000000  0.24999000  0.87337000  1.0
  Pt  Pt20  1  0.25000000  0.00000000  0.95779000  1.0
  Pt  Pt21  1  0.25000000  0.50000000  0.95779000  1.0
  Pt  Pt22  1  0.26238000  0.50000000  0.11978000  1.0
  Pt  Pt23  1  0.26653000  0.00000000  0.11900000  1.0
  C  C24  1  0.86985000  0.50000000  0.19992000  1.0
  O  O25  1  0.91638000  0.50000000  0.24151000  1.0
