# generated using pymatgen
data_Li4Ag8Sn4CO
_symmetry_space_group_name_H-M   'P 1'
_cell_length_a   6.77071000
_cell_length_b   6.77071000
_cell_length_c   25.07800000
_cell_angle_alpha   90.00000000
_cell_angle_beta   90.00000000
_cell_angle_gamma   90.00000000
_symmetry_Int_Tables_number   1
_chemical_formula_structural   Li4Ag8Sn4CO
_chemical_formula_sum   'Li4 Ag8 Sn4 C1 O1'
_cell_volume   1149.63856369
_cell_formula_units_Z   1
loop_
 _symmetry_equiv_pos_site_id
 _symmetry_equiv_pos_as_xyz
  1  'x, y, z'
loop_
 _atom_site_type_symbol
 _atom_site_label
 _atom_site_symmetry_multiplicity
 _atom_site_fract_x
 _atom_site_fract_y
 _atom_site_fract_z
 _atom_site_occupancy
  Li  Li0  1  0.75000000  0.25000000  0.89876000  1
  Li  Li1  1  0.25000000  0.75000000  0.89876000  1
  Li  Li2  1  0.75000000  0.75000000  0.03375000  1
  Li  Li3  1  0.25000000  0.25000000  0.03375000  1
  Ag  Ag4  1  0.50000000  0.50000000  0.96625000  1
  Ag  Ag5  1  0.00000000  0.00000000  0.10124000  1
  Ag  Ag6  1  0.50000000  0.00000000  0.96625000  1
  Ag  Ag7  1  0.00000000  0.50000000  0.10124000  1
  Ag  Ag8  1  0.00000000  0.00000000  0.96625000  1
  Ag  Ag9  1  0.50000000  0.50000000  0.10124000  1
  Ag  Ag10  1  0.00000000  0.50000000  0.96625000  1
  Ag  Ag11  1  0.50000000  0.00000000  0.10124000  1
  Sn  Sn12  1  0.75000000  0.25000000  0.03375000  1
  Sn  Sn13  1  0.75000000  0.75000000  0.89876000  1
  Sn  Sn14  1  0.25000000  0.25000000  0.89876000  1
  Sn  Sn15  1  0.25000000  0.75000000  0.03375000  1
  C  C16  1  0.50000000  0.50000000  0.17701000  1
  O  O17  1  0.50000000  0.50000000  0.22286000  1
