# generated using pymatgen
data_Li4Ag8Sn4CO
_symmetry_space_group_name_H-M   Cmm2
_cell_length_a   9.57522991
_cell_length_b   9.57522991
_cell_length_c   25.07800000
_cell_angle_alpha   90.00000000
_cell_angle_beta   90.00000000
_cell_angle_gamma   90.00000000
_symmetry_Int_Tables_number   35
_chemical_formula_structural   Li4Ag8Sn4CO
_chemical_formula_sum   'Li8 Ag16 Sn8 C2 O2'
_cell_volume   2299.27712737
_cell_formula_units_Z   2
loop_
 _symmetry_equiv_pos_site_id
 _symmetry_equiv_pos_as_xyz
  1  'x, y, z'
  2  '-x, -y, z'
  3  '-x, y, z'
  4  'x, -y, z'
  5  'x+1/2, y+1/2, z'
  6  '-x+1/2, -y+1/2, z'
  7  '-x+1/2, y+1/2, z'
  8  'x+1/2, -y+1/2, z'
loop_
 _atom_site_type_symbol
 _atom_site_label
 _atom_site_symmetry_multiplicity
 _atom_site_fract_x
 _atom_site_fract_y
 _atom_site_fract_z
 _atom_site_occupancy
  Li  Li0  4  0.00000000  0.25000000  0.89876000  1.0
  Li  Li1  4  0.25000000  0.50000000  0.03375000  1.0
  Ag  Ag2  4  0.25000000  0.25000000  0.10124000  1.0
  Ag  Ag3  4  0.25000000  0.25000000  0.96625000  1.0
  Ag  Ag4  2  0.00000000  0.00000000  0.10124000  1.0
  Ag  Ag5  2  0.00000000  0.00000000  0.96625000  1.0
  Ag  Ag6  2  0.00000000  0.50000000  0.10124000  1.0
  Ag  Ag7  2  0.00000000  0.50000000  0.96625000  1.0
  Sn  Sn8  4  0.00000000  0.25000000  0.03375000  1.0
  Sn  Sn9  4  0.25000000  0.50000000  0.89876000  1.0
  C  C10  2  0.00000000  0.50000000  0.17701000  1.0
  O  O11  2  0.00000000  0.50000000  0.22286000  1.0
