# generated using pymatgen
data_Y8In8Cu8Pd8CO
_symmetry_space_group_name_H-M   'P 1'
_cell_length_a   6.76944000
_cell_length_b   9.57344000
_cell_length_c   27.18010000
_cell_angle_alpha   90.00000000
_cell_angle_beta   90.00000000
_cell_angle_gamma   90.00000000
_symmetry_Int_Tables_number   1
_chemical_formula_structural   Y8In8Cu8Pd8CO
_chemical_formula_sum   'Y8 In8 Cu8 Pd8 C1 O1'
_cell_volume   1761.45605685
_cell_formula_units_Z   1
loop_
 _symmetry_equiv_pos_site_id
 _symmetry_equiv_pos_as_xyz
  1  'x, y, z'
loop_
 _atom_site_type_symbol
 _atom_site_label
 _atom_site_symmetry_multiplicity
 _atom_site_fract_x
 _atom_site_fract_y
 _atom_site_fract_z
 _atom_site_occupancy
  Y  Y0  1  0.75000000  0.00000000  0.95597000  1.0
  Y  Y1  1  0.75000000  0.50000000  0.95597000  1.0
  Y  Y2  1  0.25000000  0.25000000  0.86792000  1.0
  Y  Y3  1  0.25000000  0.75000000  0.86792000  1.0
  Y  Y4  1  0.73534000  0.50000000  0.13554000  1.0
  Y  Y5  1  0.73515000  0.00002000  0.13707000  1.0
  Y  Y6  1  0.24509000  0.74952000  0.04404000  1.0
  Y  Y7  1  0.24510000  0.25047000  0.04403000  1.0
  In  In8  1  0.25000000  0.00000000  0.95597000  1.0
  In  In9  1  0.25000000  0.50000000  0.95597000  1.0
  In  In10  1  0.75000000  0.25000000  0.86792000  1.0
  In  In11  1  0.75000000  0.75000000  0.86792000  1.0
  In  In12  1  0.24102000  0.50000000  0.13436000  1.0
  In  In13  1  0.23714000  0.00001000  0.13194000  1.0
  In  In14  1  0.74423000  0.75094000  0.04646000  1.0
  In  In15  1  0.74422000  0.24905000  0.04645000  1.0
  Cu  Cu16  1  0.00000000  0.00000000  0.86792000  1.0
  Cu  Cu17  1  0.00000000  0.50000000  0.86792000  1.0
  Cu  Cu18  1  0.50000000  0.75000000  0.95597000  1.0
  Cu  Cu19  1  0.50000000  0.25000000  0.95597000  1.0
  Cu  Cu20  1  0.97876000  0.49999000  0.04874000  1.0
  Cu  Cu21  1  0.98140000  0.00000000  0.04751000  1.0
  Cu  Cu22  1  0.46081000  0.25049000  0.13484000  1.0
  Cu  Cu23  1  0.46082000  0.74952000  0.13484000  1.0
  Pd  Pd24  1  0.00000000  0.25000000  0.95597000  1.0
  Pd  Pd25  1  0.00000000  0.75000000  0.95597000  1.0
  Pd  Pd26  1  0.50000000  0.50000000  0.86792000  1.0
  Pd  Pd27  1  0.50000000  0.00000000  0.86792000  1.0
  Pd  Pd28  1  0.00570000  0.74814000  0.12888000  1.0
  Pd  Pd29  1  0.00569000  0.25188000  0.12888000  1.0
  Pd  Pd30  1  0.50633000  0.00000000  0.04448000  1.0
  Pd  Pd31  1  0.50909000  0.49999000  0.04518000  1.0
  C  C32  1  0.55274000  0.99996000  0.21620000  1.0
  O  O33  1  0.47775000  0.99993000  0.25430000  1.0
