data_image0
_chemical_formula_structural       Y8In8Ag8Pd8C
_chemical_formula_sum              "Y8 In8 Ag8 Pd8 C1"
_cell_length_a       6.92663
_cell_length_b       9.79574
_cell_length_c       27.3468
_cell_angle_alpha    90
_cell_angle_beta     90
_cell_angle_gamma    90

_space_group_name_H-M_alt    "P 1"
_space_group_IT_number       1

loop_
  _space_group_symop_operation_xyz
  'x, y, z'

loop_
  _atom_site_type_symbol
  _atom_site_label
  _atom_site_symmetry_multiplicity
  _atom_site_fract_x
  _atom_site_fract_y
  _atom_site_fract_z
  _atom_site_occupancy
  Y   Y1        1.0  0.75000  0.00000  0.95522  1.0000
  Y   Y2        1.0  0.75000  0.50000  0.95522  1.0000
  Y   Y3        1.0  0.25000  0.25000  0.86567  1.0000
  Y   Y4        1.0  0.25000  0.75000  0.86567  1.0000
  Y   Y5        1.0  0.69512  0.50000  0.13001  1.0000
  Y   Y6        1.0  0.69343  1.00000  0.12876  1.0000
  Y   Y7        1.0  0.26535  0.75126  0.05377  1.0000
  Y   Y8        1.0  0.26535  0.24874  0.05377  1.0000
  In  In1       1.0  0.25000  0.00000  0.95522  1.0000
  In  In2       1.0  0.25000  0.50000  0.95522  1.0000
  In  In3       1.0  0.75000  0.25000  0.86567  1.0000
  In  In4       1.0  0.75000  0.75000  0.86567  1.0000
  In  In5       1.0  0.22312  0.50000  0.14158  1.0000
  In  In6       1.0  0.11531  0.00000  0.16623  1.0000
  In  In7       1.0  0.74796  0.74871  0.04423  1.0000
  In  In8       1.0  0.74796  0.25129  0.04423  1.0000
  Ag  Ag1       1.0  0.00000  0.00000  0.86567  1.0000
  Ag  Ag2       1.0  0.00000  0.50000  0.86567  1.0000
  Ag  Ag3       1.0  0.50000  0.75000  0.95522  1.0000
  Ag  Ag4       1.0  0.50000  0.25000  0.95522  1.0000
  Ag  Ag5       1.0  0.00512  0.50000  0.04796  1.0000
  Ag  Ag6       1.0  0.00536  0.00000  0.04730  1.0000
  Ag  Ag7       1.0  0.40372  0.23594  0.16103  1.0000
  Ag  Ag8       1.0  0.40372  0.76406  0.16103  1.0000
  Pd  Pd1       1.0  0.00000  0.25000  0.95522  1.0000
  Pd  Pd2       1.0  0.00000  0.75000  0.95522  1.0000
  Pd  Pd3       1.0  0.50000  0.50000  0.86567  1.0000
  Pd  Pd4       1.0  0.50000  0.00000  0.86567  1.0000
  Pd  Pd5       1.0  0.97422  0.73870  0.12867  1.0000
  Pd  Pd6       1.0  0.97422  0.26130  0.12867  1.0000
  Pd  Pd7       1.0  0.49980  0.00000  0.03560  1.0000
  Pd  Pd8       1.0  0.49212  0.50000  0.04063  1.0000
  C   C1        1.0  0.42309  0.00000  0.17159  1.0000
