# generated using pymatgen
data_Li4Al4Fe4Pd4C
_symmetry_space_group_name_H-M   'P 1'
_cell_length_a   8.84236000
_cell_length_b   5.15535000
_cell_length_c   23.55420000
_cell_angle_alpha   90.00000000
_cell_angle_beta   90.00000000
_cell_angle_gamma   90.00000000
_symmetry_Int_Tables_number   1
_chemical_formula_structural   Li4Al4Fe4Pd4C
_chemical_formula_sum   'Li4 Al4 Fe4 Pd4 C1'
_cell_volume   1073.72905668
_cell_formula_units_Z   1
loop_
 _symmetry_equiv_pos_site_id
 _symmetry_equiv_pos_as_xyz
  1  'x, y, z'
loop_
 _atom_site_type_symbol
 _atom_site_label
 _atom_site_symmetry_multiplicity
 _atom_site_fract_x
 _atom_site_fract_y
 _atom_site_fract_z
 _atom_site_occupancy
  Li  Li0  1  0.25000000  0.65157000  0.02515000  1.0
  Li  Li1  1  0.22559000  0.98415000  0.91616000  1.0
  Li  Li2  1  0.75000000  0.65157000  0.02515000  1.0
  Li  Li3  1  0.77441000  0.98415000  0.91616000  1.0
  Al  Al4  1  0.00000000  0.00000000  0.07545000  1.0
  Al  Al5  1  0.00000000  0.30690000  0.97961000  1.0
  Al  Al6  1  0.50000000  0.00000000  0.07545000  1.0
  Al  Al7  1  0.50000000  0.26740000  0.97024000  1.0
  Fe  Fe8  1  0.00000000  0.50000000  0.07545000  1.0
  Fe  Fe9  1  0.00000000  0.79987000  0.98131000  1.0
  Fe  Fe10  1  0.50000000  0.50000000  0.07545000  1.0
  Fe  Fe11  1  0.50000000  0.73252000  0.99343000  1.0
  Pd  Pd12  1  0.25000000  0.15157000  0.02515000  1.0
  Pd  Pd13  1  0.23235000  0.49668000  0.92718000  1.0
  Pd  Pd14  1  0.75000000  0.15157000  0.02515000  1.0
  Pd  Pd15  1  0.76765000  0.49668000  0.92718000  1.0
  C  C16  1  0.00000000  0.63930000  0.91886000  1.0
