# generated using pymatgen
data_Li4Al4Fe4Pd4C
_symmetry_space_group_name_H-M   Pm
_cell_length_a   5.15535000
_cell_length_b   8.84236000
_cell_length_c   23.55420000
_cell_angle_alpha   90.00000000
_cell_angle_beta   90.00000000
_cell_angle_gamma   90.00000000
_symmetry_Int_Tables_number   6
_chemical_formula_structural   Li4Al4Fe4Pd4C
_chemical_formula_sum   'Li4 Al4 Fe4 Pd4 C1'
_cell_volume   1073.72905668
_cell_formula_units_Z   1
loop_
 _symmetry_equiv_pos_site_id
 _symmetry_equiv_pos_as_xyz
  1  'x, y, z'
  2  'x, -y, z'
loop_
 _atom_site_type_symbol
 _atom_site_label
 _atom_site_symmetry_multiplicity
 _atom_site_fract_x
 _atom_site_fract_y
 _atom_site_fract_z
 _atom_site_occupancy
  Li  Li0  2  0.65157000  0.25000000  0.97485000  1.0
  Li  Li1  2  0.98415000  0.22559000  0.08384000  1.0
  Al  Al2  1  0.00000000  0.00000000  0.92455000  1.0
  Al  Al3  1  0.00000000  0.50000000  0.92455000  1.0
  Al  Al4  1  0.26740000  0.50000000  0.02976000  1.0
  Al  Al5  1  0.30690000  0.00000000  0.02039000  1.0
  Fe  Fe6  1  0.50000000  0.00000000  0.92455000  1.0
  Fe  Fe7  1  0.50000000  0.50000000  0.92455000  1.0
  Fe  Fe8  1  0.73252000  0.50000000  0.00657000  1.0
  Fe  Fe9  1  0.79987000  0.00000000  0.01869000  1.0
  Pd  Pd10  2  0.15157000  0.25000000  0.97485000  1.0
  Pd  Pd11  2  0.49668000  0.23235000  0.07282000  1.0
  C  C12  1  0.63930000  0.00000000  0.08114000  1.0
