# generated using pymatgen
data_Li8Mg8Ge8Au8CO
_symmetry_space_group_name_H-M   'P 1'
_cell_length_a   6.50951000
_cell_length_b   9.20584000
_cell_length_c   26.90440000
_cell_angle_alpha   90.00000000
_cell_angle_beta   90.00000000
_cell_angle_gamma   90.00000000
_symmetry_Int_Tables_number   1
_chemical_formula_structural   Li8Mg8Ge8Au8CO
_chemical_formula_sum   'Li8 Mg8 Ge8 Au8 C1 O1'
_cell_volume   1612.25982502
_cell_formula_units_Z   1
loop_
 _symmetry_equiv_pos_site_id
 _symmetry_equiv_pos_as_xyz
  1  'x, y, z'
loop_
 _atom_site_type_symbol
 _atom_site_label
 _atom_site_symmetry_multiplicity
 _atom_site_fract_x
 _atom_site_fract_y
 _atom_site_fract_z
 _atom_site_occupancy
  Li  Li0  1  0.25000000  0.00000000  0.95723000  1.0
  Li  Li1  1  0.25000000  0.50000000  0.95723000  1.0
  Li  Li2  1  0.75000000  0.75000000  0.87169000  1.0
  Li  Li3  1  0.75000000  0.25000000  0.87169000  1.0
  Li  Li4  1  0.25284000  0.51445000  0.13141000  1.0
  Li  Li5  1  0.25285000  0.98565000  0.13142000  1.0
  Li  Li6  1  0.75753000  0.24999000  0.04431000  1.0
  Li  Li7  1  0.75415000  0.74996000  0.03780000  1.0
  Mg  Mg8  1  0.75000000  0.00000000  0.95723000  1.0
  Mg  Mg9  1  0.75000000  0.50000000  0.95723000  1.0
  Mg  Mg10  1  0.25000000  0.75000000  0.87169000  1.0
  Mg  Mg11  1  0.25000000  0.25000000  0.87169000  1.0
  Mg  Mg12  1  0.78485000  0.46780000  0.13649000  1.0
  Mg  Mg13  1  0.78486000  0.03230000  0.13651000  1.0
  Mg  Mg14  1  0.24254000  0.24995000  0.04249000  1.0
  Mg  Mg15  1  0.26202000  0.74999000  0.04458000  1.0
  Ge  Ge16  1  0.00000000  0.75000000  0.95723000  1.0
  Ge  Ge17  1  0.00000000  0.25000000  0.95723000  1.0
  Ge  Ge18  1  0.50000000  0.50000000  0.87169000  1.0
  Ge  Ge19  1  0.50000000  0.00000000  0.87169000  1.0
  Ge  Ge20  1  0.07338000  0.25005000  0.14468000  1.0
  Ge  Ge21  1  0.98108000  0.75006000  0.12664000  1.0
  Ge  Ge22  1  0.52247000  0.99760000  0.05299000  1.0
  Ge  Ge23  1  0.52240000  0.50234000  0.05297000  1.0
  Au  Au24  1  0.00000000  0.00000000  0.87169000  1.0
  Au  Au25  1  0.00000000  0.50000000  0.87169000  1.0
  Au  Au26  1  0.50000000  0.25000000  0.95723000  1.0
  Au  Au27  1  0.50000000  0.75000000  0.95723000  1.0
  Au  Au28  1  0.99368000  0.50663000  0.04373000  1.0
  Au  Au29  1  0.99360000  0.99328000  0.04374000  1.0
  Au  Au30  1  0.57129000  0.75005000  0.12603000  1.0
  Au  Au31  1  0.48134000  0.25005000  0.12657000  1.0
  C  C32  1  0.44663000  0.74997000  0.19975000  1.0
  O  O33  1  0.46408000  0.75001000  0.24243000  1.0
