# generated using pymatgen
data_V8Ga8Fe16C
_symmetry_space_group_name_H-M   Pmm2
_cell_length_a   5.73361000
_cell_length_b   8.10855000
_cell_length_c   26.08140000
_cell_angle_alpha   90.00000000
_cell_angle_beta   90.00000000
_cell_angle_gamma   90.00000000
_symmetry_Int_Tables_number   25
_chemical_formula_structural   V8Ga8Fe16C
_chemical_formula_sum   'V8 Ga8 Fe16 C1'
_cell_volume   1212.55723634
_cell_formula_units_Z   1
loop_
 _symmetry_equiv_pos_site_id
 _symmetry_equiv_pos_as_xyz
  1  'x, y, z'
  2  '-x, -y, z'
  3  '-x, y, z'
  4  'x, -y, z'
loop_
 _atom_site_type_symbol
 _atom_site_label
 _atom_site_symmetry_multiplicity
 _atom_site_fract_x
 _atom_site_fract_y
 _atom_site_fract_z
 _atom_site_occupancy
  V  V0  2  0.50000000  0.25000000  0.96114000  1.0
  V  V1  2  0.50000000  0.25044000  0.11367000  1.0
  V  V2  1  0.00000000  0.00000000  0.03675000  1.0
  V  V3  1  0.00000000  0.00000000  0.88341000  1.0
  V  V4  1  0.00000000  0.50000000  0.03883000  1.0
  V  V5  1  0.00000000  0.50000000  0.88341000  1.0
  Ga  Ga6  2  0.00000000  0.25000000  0.96114000  1.0
  Ga  Ga7  2  0.00000000  0.25329000  0.12071000  1.0
  Ga  Ga8  1  0.50000000  0.00000000  0.03657000  1.0
  Ga  Ga9  1  0.50000000  0.00000000  0.88341000  1.0
  Ga  Ga10  1  0.50000000  0.50000000  0.03893000  1.0
  Ga  Ga11  1  0.50000000  0.50000000  0.88341000  1.0
  Fe  Fe12  4  0.25000000  0.25000000  0.88341000  1.0
  Fe  Fe13  4  0.25116000  0.24872000  0.03962000  1.0
  Fe  Fe14  2  0.24959000  0.50000000  0.11693000  1.0
  Fe  Fe15  2  0.25000000  0.00000000  0.96114000  1.0
  Fe  Fe16  2  0.25000000  0.50000000  0.96114000  1.0
  Fe  Fe17  2  0.25720000  0.00000000  0.11535000  1.0
  C  C18  1  0.00000000  0.00000000  0.15319000  1.0
