# generated using pymatgen
data_InNi
_symmetry_space_group_name_H-M   Pmm2
_cell_length_a   3.17605000
_cell_length_b   4.49161000
_cell_length_c   26.73740000
_cell_angle_alpha   90.00000000
_cell_angle_beta   90.00000000
_cell_angle_gamma   90.00000000
_symmetry_Int_Tables_number   25
_chemical_formula_structural   InNi
_chemical_formula_sum   'In4 Ni4'
_cell_volume   381.42446363
_cell_formula_units_Z   4
loop_
 _symmetry_equiv_pos_site_id
 _symmetry_equiv_pos_as_xyz
  1  'x, y, z'
  2  '-x, -y, z'
  3  '-x, y, z'
  4  'x, -y, z'
loop_
 _atom_site_type_symbol
 _atom_site_label
 _atom_site_symmetry_multiplicity
 _atom_site_fract_x
 _atom_site_fract_y
 _atom_site_fract_z
 _atom_site_occupancy
  In  In0  1  0.00000000  0.00000000  0.04216000  1.0
  In  In1  1  0.00000000  0.00000000  0.87401000  1.0
  In  In2  1  0.00000000  0.50000000  0.13376000  1.0
  In  In3  1  0.00000000  0.50000000  0.95800000  1.0
  Ni  Ni4  1  0.50000000  0.00000000  0.12067000  1.0
  Ni  Ni5  1  0.50000000  0.00000000  0.95800000  1.0
  Ni  Ni6  1  0.50000000  0.50000000  0.04124000  1.0
  Ni  Ni7  1  0.50000000  0.50000000  0.87401000  1.0
