# generated using pymatgen
data_Y8Al8In8Pd8CO
_symmetry_space_group_name_H-M   'P 1'
_cell_length_a   8.16174000
_cell_length_b   8.86460000
_cell_length_c   26.91240000
_cell_angle_alpha   90.00000000
_cell_angle_beta   90.00000000
_cell_angle_gamma   90.00000000
_symmetry_Int_Tables_number   1
_chemical_formula_structural   Y8Al8In8Pd8CO
_chemical_formula_sum   'Y8 Al8 In8 Pd8 C1 O1'
_cell_volume   1947.12722182
_cell_formula_units_Z   1
loop_
 _symmetry_equiv_pos_site_id
 _symmetry_equiv_pos_as_xyz
  1  'x, y, z'
loop_
 _atom_site_type_symbol
 _atom_site_label
 _atom_site_symmetry_multiplicity
 _atom_site_fract_x
 _atom_site_fract_y
 _atom_site_fract_z
 _atom_site_occupancy
  Y  Y0  1  0.75050000  0.00428000  0.04545000  1.0
  Y  Y1  1  0.75000000  0.00000000  0.87158000  1.0
  Y  Y2  1  0.75125000  0.49597000  0.04586000  1.0
  Y  Y3  1  0.75000000  0.50000000  0.87158000  1.0
  Y  Y4  1  0.24928000  0.00010000  0.04559000  1.0
  Y  Y5  1  0.25000000  0.00000000  0.87158000  1.0
  Y  Y6  1  0.24835000  0.50034000  0.04603000  1.0
  Y  Y7  1  0.25000000  0.50000000  0.87158000  1.0
  Al  Al8  1  0.99815000  0.91069000  0.13058000  1.0
  Al  Al9  1  0.00000000  0.00000000  0.95719000  1.0
  Al  Al10  1  0.99819000  0.59208000  0.13126000  1.0
  Al  Al11  1  0.00000000  0.50000000  0.95719000  1.0
  Al  Al12  1  0.49838000  0.09074000  0.13027000  1.0
  Al  Al13  1  0.50000000  0.00000000  0.95719000  1.0
  Al  Al14  1  0.49931000  0.40322000  0.12971000  1.0
  Al  Al15  1  0.50000000  0.50000000  0.95719000  1.0
  In  In16  1  0.68199000  0.75085000  0.13611000  1.0
  In  In17  1  0.75000000  0.75000000  0.95719000  1.0
  In  In18  1  0.82091000  0.24866000  0.14295000  1.0
  In  In19  1  0.75000000  0.25000000  0.95719000  1.0
  In  In20  1  0.31167000  0.75067000  0.14030000  1.0
  In  In21  1  0.25000000  0.75000000  0.95719000  1.0
  In  In22  1  0.17963000  0.24821000  0.14216000  1.0
  In  In23  1  0.25000000  0.25000000  0.95719000  1.0
  Pd  Pd24  1  0.99778000  0.75094000  0.04216000  1.0
  Pd  Pd25  1  1.00000000  0.75000000  0.87158000  1.0
  Pd  Pd26  1  0.00114000  0.24978000  0.03682000  1.0
  Pd  Pd27  1  1.00000000  0.25000000  0.87158000  1.0
  Pd  Pd28  1  0.50094000  0.74979000  0.03192000  1.0
  Pd  Pd29  1  0.50000000  0.75000000  0.87158000  1.0
  Pd  Pd30  1  0.49673000  0.24976000  0.04031000  1.0
  Pd  Pd31  1  0.50000000  0.25000000  0.87158000  1.0
  C  C32  1  0.68287000  0.73453000  0.27164000  1.0
  O  O33  1  0.80277000  0.75709000  0.29172000  1.0
