# generated using pymatgen
data_Y8Al8In8Pd8CO
_symmetry_space_group_name_H-M   P1
_cell_length_a   8.16174000
_cell_length_b   8.86460000
_cell_length_c   26.91240000
_cell_angle_alpha   90.00000000
_cell_angle_beta   90.00000000
_cell_angle_gamma   90.00000000
_symmetry_Int_Tables_number   1
_chemical_formula_structural   Y8Al8In8Pd8CO
_chemical_formula_sum   'Y8 Al8 In8 Pd8 C1 O1'
_cell_volume   1947.12722182
_cell_formula_units_Z   1
loop_
 _symmetry_equiv_pos_site_id
 _symmetry_equiv_pos_as_xyz
  1  'x, y, z'
loop_
 _atom_site_type_symbol
 _atom_site_label
 _atom_site_symmetry_multiplicity
 _atom_site_fract_x
 _atom_site_fract_y
 _atom_site_fract_z
 _atom_site_occupancy
  Y  Y0  1  0.24875000  0.50403000  0.04586000  1.0
  Y  Y1  1  0.24950000  0.99572000  0.04545000  1.0
  Y  Y2  1  0.25000000  0.00000000  0.87158000  1.0
  Y  Y3  1  0.25000000  0.50000000  0.87158000  1.0
  Y  Y4  1  0.75000000  0.00000000  0.87158000  1.0
  Y  Y5  1  0.75000000  0.50000000  0.87158000  1.0
  Y  Y6  1  0.75072000  0.99990000  0.04559000  1.0
  Y  Y7  1  0.75165000  0.49966000  0.04603000  1.0
  Al  Al8  1  0.00000000  0.00000000  0.95719000  1.0
  Al  Al9  1  0.00000000  0.50000000  0.95719000  1.0
  Al  Al10  1  0.00181000  0.40792000  0.13126000  1.0
  Al  Al11  1  0.00185000  0.08931000  0.13058000  1.0
  Al  Al12  1  0.50000000  0.00000000  0.95719000  1.0
  Al  Al13  1  0.50000000  0.50000000  0.95719000  1.0
  Al  Al14  1  0.50069000  0.59678000  0.12971000  1.0
  Al  Al15  1  0.50162000  0.90926000  0.13027000  1.0
  In  In16  1  0.17909000  0.75134000  0.14295000  1.0
  In  In17  1  0.25000000  0.25000000  0.95719000  1.0
  In  In18  1  0.25000000  0.75000000  0.95719000  1.0
  In  In19  1  0.31801000  0.24915000  0.13611000  1.0
  In  In20  1  0.68833000  0.24933000  0.14030000  1.0
  In  In21  1  0.75000000  0.25000000  0.95719000  1.0
  In  In22  1  0.75000000  0.75000000  0.95719000  1.0
  In  In23  1  0.82037000  0.75179000  0.14216000  1.0
  Pd  Pd24  1  0.00000000  0.25000000  0.87158000  1.0
  Pd  Pd25  1  0.00000000  0.75000000  0.87158000  1.0
  Pd  Pd26  1  0.00222000  0.24906000  0.04216000  1.0
  Pd  Pd27  1  0.49906000  0.25021000  0.03192000  1.0
  Pd  Pd28  1  0.50000000  0.25000000  0.87158000  1.0
  Pd  Pd29  1  0.50000000  0.75000000  0.87158000  1.0
  Pd  Pd30  1  0.50327000  0.75024000  0.04031000  1.0
  Pd  Pd31  1  0.99886000  0.75022000  0.03682000  1.0
  C  C32  1  0.31713000  0.26547000  0.27164000  1.0
  O  O33  1  0.19723000  0.24291000  0.29172000  1.0
