# generated using pymatgen
data_Ti8Ni16Sb8C
_symmetry_space_group_name_H-M   Pm
_cell_length_a   8.69583000
_cell_length_b   6.14888000
_cell_length_c   26.52190000
_cell_angle_alpha   90.00000000
_cell_angle_beta   90.00000000
_cell_angle_gamma   90.00000000
_symmetry_Int_Tables_number   6
_chemical_formula_structural   Ti8Ni16Sb8C
_chemical_formula_sum   'Ti8 Ni16 Sb8 C1'
_cell_volume   1418.11578659
_cell_formula_units_Z   1
loop_
 _symmetry_equiv_pos_site_id
 _symmetry_equiv_pos_as_xyz
  1  'x, y, z'
  2  '-x, -y, z'
  3  'x, -y, z'
  4  '-x, y, z'
loop_
 _atom_site_type_symbol
 _atom_site_label
 _atom_site_symmetry_multiplicity
 _atom_site_fract_x
 _atom_site_fract_y
 _atom_site_fract_z
 _atom_site_occupancy
  Ti  Ti0  2  0.22850000  0.00000000  0.12457000  1.0
  Ti  Ti1  2  0.25000000  0.00000000  0.95902000  1.0
  Ti  Ti2  1  0.00000000  0.50000000  0.87705000  1.0
  Ti  Ti3  1  0.00003000  0.50000000  0.04103000  1.0
  Ti  Ti4  1  0.50000000  0.50000000  0.87705000  1.0
  Ti  Ti5  1  0.50001000  0.50000000  0.04261000  1.0
  Ni  Ni6  4  0.24985000  0.25717000  0.04392000  1.0
  Ni  Ni7  4  0.25000000  0.25002000  0.87705000  1.0
  Ni  Ni8  2  0.00000000  0.25002000  0.95902000  1.0
  Ni  Ni9  2  0.00000000  0.29045000  0.11978000  1.0
  Ni  Ni10  2  0.49999000  0.22323000  0.11760000  1.0
  Ni  Ni11  2  0.50000000  0.24998000  0.95902000  1.0
  Sb  Sb12  2  0.25000000  0.50000000  0.95902000  1.0
  Sb  Sb13  2  0.26549000  0.50000000  0.13200000  1.0
  Sb  Sb14  1  0.00000000  0.00000000  0.87705000  1.0
  Sb  Sb15  1  0.00001000  0.00000000  0.03889000  1.0
  Sb  Sb16  1  0.50000000  0.00000000  0.87705000  1.0
  Sb  Sb17  1  0.50006000  0.00000000  0.03859000  1.0
  C  C18  1  0.00001000  0.00000000  0.14514000  1.0
