data_image0
_chemical_formula_structural       Fe8Co16Si8CO
_chemical_formula_sum              "Fe8 Co16 Si8 C1 O1"
_cell_length_a       5.64511
_cell_length_b       7.98338
_cell_length_c       25.9875
_cell_angle_alpha    90
_cell_angle_beta     90
_cell_angle_gamma    90

_space_group_name_H-M_alt    "P 1"
_space_group_IT_number       1

loop_
  _space_group_symop_operation_xyz
  'x, y, z'

loop_
  _atom_site_type_symbol
  _atom_site_label
  _atom_site_symmetry_multiplicity
  _atom_site_fract_x
  _atom_site_fract_y
  _atom_site_fract_z
  _atom_site_occupancy
  Fe  Fe1       1.0  0.00000  0.00000  0.88480  1.0000
  Fe  Fe2       1.0  0.50000  0.25000  0.96160  1.0000
  Fe  Fe3       1.0  0.50000  0.75000  0.96160  1.0000
  Fe  Fe4       1.0  0.00000  0.50000  0.88480  1.0000
  Fe  Fe5       1.0  0.00000  0.50123  0.03845  1.0000
  Fe  Fe6       1.0  0.50000  0.75003  0.11704  1.0000
  Fe  Fe7       1.0  0.50000  0.24997  0.11812  1.0000
  Fe  Fe8       1.0  0.00000  0.99877  0.03845  1.0000
  Co  Co1       1.0  0.25000  0.00000  0.96160  1.0000
  Co  Co2       1.0  0.75000  0.50000  0.96160  1.0000
  Co  Co3       1.0  0.75000  0.00000  0.96160  1.0000
  Co  Co4       1.0  0.25000  0.50000  0.96160  1.0000
  Co  Co5       1.0  0.75000  0.75000  0.88480  1.0000
  Co  Co6       1.0  0.25000  0.25000  0.88480  1.0000
  Co  Co7       1.0  0.25000  0.75000  0.88480  1.0000
  Co  Co8       1.0  0.75000  0.25000  0.88480  1.0000
  Co  Co9       1.0  0.24491  0.50023  0.11182  1.0000
  Co  Co10      1.0  0.75510  0.99977  0.11182  1.0000
  Co  Co11      1.0  0.75509  0.50023  0.11182  1.0000
  Co  Co12      1.0  0.24490  0.99977  0.11182  1.0000
  Co  Co13      1.0  0.74878  0.24999  0.03685  1.0000
  Co  Co14      1.0  0.25195  0.75001  0.03820  1.0000
  Co  Co15      1.0  0.25122  0.24999  0.03685  1.0000
  Co  Co16      1.0  0.74805  0.75001  0.03820  1.0000
  Si  Si1       1.0  0.00000  0.75000  0.96160  1.0000
  Si  Si2       1.0  0.50000  0.00000  0.88480  1.0000
  Si  Si3       1.0  0.00000  0.25000  0.96160  1.0000
  Si  Si4       1.0  0.50000  0.50000  0.88480  1.0000
  Si  Si5       1.0  0.00000  0.25001  0.11218  1.0000
  Si  Si6       1.0  0.50000  0.49733  0.03963  1.0000
  Si  Si7       1.0  0.00000  0.74999  0.11606  1.0000
  Si  Si8       1.0  0.50000  0.00266  0.03963  1.0000
  C   C1        1.0  0.50000  0.24999  0.18765  1.0000
  O   O1        1.0  0.50000  0.25000  0.23222  1.0000
