# generated using pymatgen
data_Li8Hf8In8Pd8C
_symmetry_space_group_name_H-M   'P 1'
_cell_length_a   9.21246000
_cell_length_b   6.51419000
_cell_length_c   26.90930000
_cell_angle_alpha   90.00000000
_cell_angle_beta   90.00000000
_cell_angle_gamma   90.00000000
_symmetry_Int_Tables_number   1
_chemical_formula_structural   Li8Hf8In8Pd8C
_chemical_formula_sum   'Li8 Hf8 In8 Pd8 C1'
_cell_volume   1614.87323727
_cell_formula_units_Z   1
loop_
 _symmetry_equiv_pos_site_id
 _symmetry_equiv_pos_as_xyz
  1  'x, y, z'
loop_
 _atom_site_type_symbol
 _atom_site_label
 _atom_site_symmetry_multiplicity
 _atom_site_fract_x
 _atom_site_fract_y
 _atom_site_fract_z
 _atom_site_occupancy
  Li  Li0  1  0.75000000  0.75000000  0.04279000  1.0
  Li  Li1  1  0.25000000  0.75000000  0.04279000  1.0
  Li  Li2  1  0.00000000  0.25000000  0.12838000  1.0
  Li  Li3  1  0.50000000  0.25000000  0.12838000  1.0
  Li  Li4  1  0.27785000  0.79380000  0.82109000  1.0
  Li  Li5  1  0.72215000  0.79380000  0.82109000  1.0
  Li  Li6  1  0.50000000  0.23760000  0.95795000  1.0
  Li  Li7  1  0.00000000  0.22961000  0.93943000  1.0
  Hf  Hf8  1  0.75000000  0.00000000  0.12838000  1.0
  Hf  Hf9  1  0.25000000  0.00000000  0.12838000  1.0
  Hf  Hf10  1  0.50000000  0.50000000  0.04279000  1.0
  Hf  Hf11  1  0.00000000  0.50000000  0.04279000  1.0
  Hf  Hf12  1  0.25133000  0.98608000  0.95231000  1.0
  Hf  Hf13  1  0.74867000  0.98608000  0.95231000  1.0
  Hf  Hf14  1  0.00000000  0.57725000  0.87591000  1.0
  Hf  Hf15  1  0.50000000  0.49965000  0.87673000  1.0
  In  In16  1  0.00000000  1.00000000  0.04279000  1.0
  In  In17  1  0.50000000  1.00000000  0.04279000  1.0
  In  In18  1  0.25000000  0.50000000  0.12838000  1.0
  In  In19  1  0.75000000  0.50000000  0.12838000  1.0
  In  In20  1  0.50000000  0.99843000  0.86762000  1.0
  In  In21  1  0.00000000  0.97266000  0.83457000  1.0
  In  In22  1  0.75345000  0.50066000  0.95708000  1.0
  In  In23  1  0.24655000  0.50066000  0.95708000  1.0
  Pd  Pd24  1  0.75000000  0.25000000  0.04279000  1.0
  Pd  Pd25  1  0.25000000  0.25000000  0.04279000  1.0
  Pd  Pd26  1  0.00000000  0.75000000  0.12838000  1.0
  Pd  Pd27  1  0.50000000  0.75000000  0.12838000  1.0
  Pd  Pd28  1  0.24144000  0.24985000  0.87364000  1.0
  Pd  Pd29  1  0.75856000  0.24985000  0.87364000  1.0
  Pd  Pd30  1  0.50000000  0.74502000  0.95783000  1.0
  Pd  Pd31  1  0.00000000  0.76407000  0.96175000  1.0
  C  C32  1  0.00000000  0.28442000  0.85483000  1.0
