# generated using pymatgen
data_Li8Cu8Si8Pd8CO
_symmetry_space_group_name_H-M   'P 1'
_cell_length_a   8.34156000
_cell_length_b   5.89837000
_cell_length_c   26.25620000
_cell_angle_alpha   90.00000000
_cell_angle_beta   90.00000000
_cell_angle_gamma   90.00000000
_symmetry_Int_Tables_number   1
_chemical_formula_structural   Li8Cu8Si8Pd8CO
_chemical_formula_sum   'Li8 Cu8 Si8 Pd8 C1 O1'
_cell_volume   1291.84724047
_cell_formula_units_Z   1
loop_
 _symmetry_equiv_pos_site_id
 _symmetry_equiv_pos_as_xyz
  1  'x, y, z'
loop_
 _atom_site_type_symbol
 _atom_site_label
 _atom_site_symmetry_multiplicity
 _atom_site_fract_x
 _atom_site_fract_y
 _atom_site_fract_z
 _atom_site_occupancy
  Li  Li0  1  0.75000000  0.25000000  0.03971000  1.0
  Li  Li1  1  0.25000000  0.25000000  0.03971000  1.0
  Li  Li2  1  0.00000000  0.75000000  0.11914000  1.0
  Li  Li3  1  0.50000000  0.75000000  0.11914000  1.0
  Li  Li4  1  0.25453000  0.26053000  0.86584000  1.0
  Li  Li5  1  0.74547000  0.26053000  0.86584000  1.0
  Li  Li6  1  0.50000000  0.75198000  0.96514000  1.0
  Li  Li7  1  0.00000000  0.76390000  0.96127000  1.0
  Cu  Cu8  1  0.75000000  0.00000000  0.11914000  1.0
  Cu  Cu9  1  0.25000000  0.00000000  0.11914000  1.0
  Cu  Cu10  1  0.50000000  0.50000000  0.03971000  1.0
  Cu  Cu11  1  0.00000000  0.50000000  0.03971000  1.0
  Cu  Cu12  1  0.24667000  0.01058000  0.95698000  1.0
  Cu  Cu13  1  0.75333000  0.01058000  0.95698000  1.0
  Cu  Cu14  1  0.00000000  0.53033000  0.88754000  1.0
  Cu  Cu15  1  0.50000000  0.52692000  0.88728000  1.0
  Si  Si16  1  0.75000000  0.75000000  0.03971000  1.0
  Si  Si17  1  0.25000000  0.75000000  0.03971000  1.0
  Si  Si18  1  0.00000000  0.25000000  0.11914000  1.0
  Si  Si19  1  0.50000000  0.25000000  0.11914000  1.0
  Si  Si20  1  0.25146000  0.75022000  0.88321000  1.0
  Si  Si21  1  0.74854000  0.75022000  0.88321000  1.0
  Si  Si22  1  0.50000000  0.25081000  0.95965000  1.0
  Si  Si23  1  0.00000000  0.24730000  0.95949000  1.0
  Pd  Pd24  1  0.00000000  0.00000000  0.03971000  1.0
  Pd  Pd25  1  0.50000000  0.00000000  0.03971000  1.0
  Pd  Pd26  1  0.25000000  0.50000000  0.11914000  1.0
  Pd  Pd27  1  0.75000000  0.50000000  0.11914000  1.0
  Pd  Pd28  1  0.50000000  0.98413000  0.88712000  1.0
  Pd  Pd29  1  0.00000000  0.99421000  0.87329000  1.0
  Pd  Pd30  1  0.75183000  0.49134000  0.95894000  1.0
  Pd  Pd31  1  0.24817000  0.49134000  0.95894000  1.0
  C  C32  1  0.00000000  0.14712000  0.80636000  1.0
  O  O33  1  0.00000000  0.18514000  0.76312000  1.0
