# generated using pymatgen
data_Fe12Pd4CO
_symmetry_space_group_name_H-M   P1
_cell_length_a   5.32300000
_cell_length_b   7.52786000
_cell_length_c   23.99230000
_cell_angle_alpha   90.00000000
_cell_angle_beta   90.00000000
_cell_angle_gamma   90.00000000
_symmetry_Int_Tables_number   1
_chemical_formula_structural   Fe12Pd4CO
_chemical_formula_sum   'Fe12 Pd4 C1 O1'
_cell_volume   961.39062557
_cell_formula_units_Z   1
loop_
 _symmetry_equiv_pos_site_id
 _symmetry_equiv_pos_as_xyz
  1  'x, y, z'
loop_
 _atom_site_type_symbol
 _atom_site_label
 _atom_site_symmetry_multiplicity
 _atom_site_fract_x
 _atom_site_fract_y
 _atom_site_fract_z
 _atom_site_occupancy
  Fe  Fe0  1  0.16799000  0.75019000  0.92537000  1.0
  Fe  Fe1  1  0.17097000  0.24971000  0.92852000  1.0
  Fe  Fe2  1  0.25000000  0.25000000  0.02773000  1.0
  Fe  Fe3  1  0.25000000  0.75000000  0.02773000  1.0
  Fe  Fe4  1  0.50000000  0.00000000  0.08320000  1.0
  Fe  Fe5  1  0.50000000  0.50000000  0.08320000  1.0
  Fe  Fe6  1  0.71178000  0.24972000  0.92299000  1.0
  Fe  Fe7  1  0.72630000  0.75020000  0.91854000  1.0
  Fe  Fe8  1  0.75000000  0.25000000  0.02773000  1.0
  Fe  Fe9  1  0.75000000  0.75000000  0.02773000  1.0
  Fe  Fe10  1  0.96691000  0.49885000  0.97561000  1.0
  Fe  Fe11  1  0.96701000  0.00103000  0.97577000  1.0
  Pd  Pd12  1  0.00000000  0.00000000  0.08320000  1.0
  Pd  Pd13  1  0.00000000  0.50000000  0.08320000  1.0
  Pd  Pd14  1  0.47215000  0.50488000  0.96773000  1.0
  Pd  Pd15  1  0.47218000  0.99476000  0.96792000  1.0
  C  C16  1  0.92723000  0.75007000  0.85427000  1.0
  O  O17  1  0.98416000  0.74999000  0.80705000  1.0
