# generated using pymatgen
data_LiGaCuPd
_symmetry_space_group_name_H-M   'P 1'
_cell_length_a   6.02537000
_cell_length_b   6.02537000
_cell_length_c   24.51900000
_cell_angle_alpha   90.00000000
_cell_angle_beta   90.00000000
_cell_angle_gamma   90.00000000
_symmetry_Int_Tables_number   1
_chemical_formula_structural   LiGaCuPd
_chemical_formula_sum   'Li4 Ga4 Cu4 Pd4'
_cell_volume   890.16434569
_cell_formula_units_Z   4
loop_
 _symmetry_equiv_pos_site_id
 _symmetry_equiv_pos_as_xyz
  1  'x, y, z'
loop_
 _atom_site_type_symbol
 _atom_site_label
 _atom_site_symmetry_multiplicity
 _atom_site_fract_x
 _atom_site_fract_y
 _atom_site_fract_z
 _atom_site_occupancy
  Li  Li0  1  0.75000000  0.25000000  0.96928000  1
  Li  Li1  1  0.25034000  0.25034000  0.10179000  1
  Li  Li2  1  0.74966000  0.74966000  0.10179000  1
  Li  Li3  1  0.25000000  0.75000000  0.96928000  1
  Ga  Ga4  1  0.75000000  0.75000000  0.96928000  1
  Ga  Ga5  1  0.25043000  0.74957000  0.09128000  1
  Ga  Ga6  1  0.74957000  0.25043000  0.09128000  1
  Ga  Ga7  1  0.25000000  0.25000000  0.96928000  1
  Cu  Cu8  1  0.00000000  0.00000000  0.90785000  1
  Cu  Cu9  1  0.50000000  0.00000000  0.03152000  1
  Cu  Cu10  1  1.00000000  0.50000000  0.03152000  1
  Cu  Cu11  1  0.50000000  0.50000000  0.90785000  1
  Pd  Pd12  1  0.50000000  0.00000000  0.90785000  1
  Pd  Pd13  1  0.00000000  0.00000000  0.03469000  1
  Pd  Pd14  1  0.50000000  0.50000000  0.03441000  1
  Pd  Pd15  1  1.00000000  0.50000000  0.90785000  1
