# generated using pymatgen
data_In8Ni8CO
_symmetry_space_group_name_H-M   P1
_cell_length_a   6.37073000
_cell_length_b   6.37073000
_cell_length_c   24.77800000
_cell_angle_alpha   90.00000000
_cell_angle_beta   90.00000000
_cell_angle_gamma   90.00000000
_symmetry_Int_Tables_number   1
_chemical_formula_structural   In8Ni8CO
_chemical_formula_sum   'In8 Ni8 C1 O1'
_cell_volume   1005.64488176
_cell_formula_units_Z   1
loop_
 _symmetry_equiv_pos_site_id
 _symmetry_equiv_pos_as_xyz
  1  'x, y, z'
loop_
 _atom_site_type_symbol
 _atom_site_label
 _atom_site_symmetry_multiplicity
 _atom_site_fract_x
 _atom_site_fract_y
 _atom_site_fract_z
 _atom_site_occupancy
  In  In0  1  0.00000000  0.00000000  0.91398000  1.0
  In  In1  1  0.00000000  0.50000000  0.91398000  1.0
  In  In2  1  0.00090000  0.49923000  0.04510000  1.0
  In  In3  1  0.00101000  0.00069000  0.04507000  1.0
  In  In4  1  0.49918000  0.00080000  0.04500000  1.0
  In  In5  1  0.49929000  0.49911000  0.04503000  1.0
  In  In6  1  0.50000000  0.00000000  0.91398000  1.0
  In  In7  1  0.50000000  0.50000000  0.91398000  1.0
  Ni  Ni8  1  0.25000000  0.25000000  0.97826000  1.0
  Ni  Ni9  1  0.25000000  0.75000000  0.97826000  1.0
  Ni  Ni10  1  0.25009000  0.24998000  0.10568000  1.0
  Ni  Ni11  1  0.25108000  0.74996000  0.10016000  1.0
  Ni  Ni12  1  0.74977000  0.75020000  0.09801000  1.0
  Ni  Ni13  1  0.74980000  0.24941000  0.10000000  1.0
  Ni  Ni14  1  0.75000000  0.25000000  0.97826000  1.0
  Ni  Ni15  1  0.75000000  0.75000000  0.97826000  1.0
  C  C16  1  0.24989000  0.25009000  0.17734000  1.0
  O  O17  1  0.24984000  0.25009000  0.22391000  1.0
