# generated using pymatgen
data_Mn16V16C
_symmetry_space_group_name_H-M   Pmm2
_cell_length_a   5.76229000
_cell_length_b   8.14911000
_cell_length_c   26.11180000
_cell_angle_alpha   90.00000000
_cell_angle_beta   90.00000000
_cell_angle_gamma   90.00000000
_symmetry_Int_Tables_number   25
_chemical_formula_structural   Mn16V16C
_chemical_formula_sum   'Mn16 V16 C1'
_cell_volume   1226.14576403
_cell_formula_units_Z   1
loop_
 _symmetry_equiv_pos_site_id
 _symmetry_equiv_pos_as_xyz
  1  'x, y, z'
  2  '-x, -y, z'
  3  '-x, y, z'
  4  'x, -y, z'
loop_
 _atom_site_type_symbol
 _atom_site_label
 _atom_site_symmetry_multiplicity
 _atom_site_fract_x
 _atom_site_fract_y
 _atom_site_fract_z
 _atom_site_occupancy
  Mn  Mn0  2  0.00000000  0.24348000  0.12144000  1.0
  Mn  Mn1  2  0.00000000  0.25000000  0.96099000  1.0
  Mn  Mn2  2  0.50000000  0.25000000  0.96099000  1.0
  Mn  Mn3  2  0.50000000  0.25707000  0.11452000  1.0
  Mn  Mn4  1  0.00000000  0.00000000  0.03910000  1.0
  Mn  Mn5  1  0.00000000  0.00000000  0.88297000  1.0
  Mn  Mn6  1  0.00000000  0.50000000  0.04306000  1.0
  Mn  Mn7  1  0.00000000  0.50000000  0.88297000  1.0
  Mn  Mn8  1  0.50000000  0.00000000  0.03723000  1.0
  Mn  Mn9  1  0.50000000  0.00000000  0.88297000  1.0
  Mn  Mn10  1  0.50000000  0.50000000  0.03951000  1.0
  Mn  Mn11  1  0.50000000  0.50000000  0.88297000  1.0
  V  V12  4  0.25000000  0.25000000  0.88297000  1.0
  V  V13  4  0.25025000  0.25097000  0.04052000  1.0
  V  V14  2  0.24946000  0.50000000  0.12192000  1.0
  V  V15  2  0.25000000  0.00000000  0.96099000  1.0
  V  V16  2  0.25000000  0.50000000  0.96099000  1.0
  V  V17  2  0.27138000  0.00000000  0.11852000  1.0
  C  C18  1  0.00000000  0.00000000  0.15794000  1.0
