data_image0
_chemical_formula_structural       Zr8Ni16Sb8C
_chemical_formula_sum              "Zr8 Ni16 Sb8 C1"
_cell_length_a       6.34847
_cell_length_b       8.97809
_cell_length_c       26.7336
_cell_angle_alpha    90
_cell_angle_beta     90
_cell_angle_gamma    90

_space_group_name_H-M_alt    "P 1"
_space_group_IT_number       1

loop_
  _space_group_symop_operation_xyz
  'x, y, z'

loop_
  _atom_site_type_symbol
  _atom_site_label
  _atom_site_symmetry_multiplicity
  _atom_site_fract_x
  _atom_site_fract_y
  _atom_site_fract_z
  _atom_site_occupancy
  Zr  Zr1       1.0  0.00000  0.00000  0.87406  1.0000
  Zr  Zr2       1.0  0.50000  0.25000  0.95802  1.0000
  Zr  Zr3       1.0  0.50000  0.75000  0.95802  1.0000
  Zr  Zr4       1.0  0.00000  0.50000  0.87406  1.0000
  Zr  Zr5       1.0  0.00001  0.50001  0.04170  1.0000
  Zr  Zr6       1.0  0.50000  0.76680  0.12609  1.0000
  Zr  Zr7       1.0  0.49997  0.23320  0.12608  1.0000
  Zr  Zr8       1.0  0.00002  0.00002  0.04530  1.0000
  Ni  Ni1       1.0  0.25000  0.00000  0.95802  1.0000
  Ni  Ni2       1.0  0.75000  0.50000  0.95802  1.0000
  Ni  Ni3       1.0  0.75000  0.00000  0.95802  1.0000
  Ni  Ni4       1.0  0.25000  0.50000  0.95802  1.0000
  Ni  Ni5       1.0  0.75000  0.75000  0.87406  1.0000
  Ni  Ni6       1.0  0.25000  0.25000  0.87406  1.0000
  Ni  Ni7       1.0  0.25000  0.75000  0.87406  1.0000
  Ni  Ni8       1.0  0.75000  0.25000  0.87406  1.0000
  Ni  Ni9       1.0  0.27313  0.49999  0.11863  1.0000
  Ni  Ni10      1.0  0.79576  0.99999  0.13159  1.0000
  Ni  Ni11      1.0  0.72693  0.49998  0.11864  1.0000
  Ni  Ni12      1.0  0.20414  0.99995  0.13161  1.0000
  Ni  Ni13      1.0  0.75152  0.25146  0.04274  1.0000
  Ni  Ni14      1.0  0.24845  0.74860  0.04275  1.0000
  Ni  Ni15      1.0  0.24846  0.25144  0.04274  1.0000
  Ni  Ni16      1.0  0.75151  0.74857  0.04273  1.0000
  Sb  Sb1       1.0  0.00000  0.75000  0.95802  1.0000
  Sb  Sb2       1.0  0.50000  0.00000  0.87406  1.0000
  Sb  Sb3       1.0  0.00000  0.25000  0.95802  1.0000
  Sb  Sb4       1.0  0.50000  0.50000  0.87406  1.0000
  Sb  Sb5       1.0  0.00000  0.26255  0.13154  1.0000
  Sb  Sb6       1.0  0.50001  0.50004  0.03972  1.0000
  Sb  Sb7       1.0  0.99999  0.73744  0.13155  1.0000
  Sb  Sb8       1.0  0.50001  0.00001  0.03929  1.0000
  C   C1        1.0  0.49996  1.00000  0.14848  1.0000
