# generated using pymatgen
data_Zr8Ni16Sb8C
_symmetry_space_group_name_H-M   'P 1'
_cell_length_a   6.34847000
_cell_length_b   8.97809000
_cell_length_c   26.73360000
_cell_angle_alpha   90.00000000
_cell_angle_beta   90.00000000
_cell_angle_gamma   90.00000000
_symmetry_Int_Tables_number   1
_chemical_formula_structural   Zr8Ni16Sb8C
_chemical_formula_sum   'Zr8 Ni16 Sb8 C1'
_cell_volume   1523.73860883
_cell_formula_units_Z   1
loop_
 _symmetry_equiv_pos_site_id
 _symmetry_equiv_pos_as_xyz
  1  'x, y, z'
loop_
 _atom_site_type_symbol
 _atom_site_label
 _atom_site_symmetry_multiplicity
 _atom_site_fract_x
 _atom_site_fract_y
 _atom_site_fract_z
 _atom_site_occupancy
  Zr  Zr0  1  0.50000000  0.00000000  0.87406000  1.0
  Zr  Zr1  1  0.00000000  0.25000000  0.95802000  1.0
  Zr  Zr2  1  0.00000000  0.75000000  0.95802000  1.0
  Zr  Zr3  1  0.50000000  0.50000000  0.87406000  1.0
  Zr  Zr4  1  0.50000000  0.50000000  0.04170000  1.0
  Zr  Zr5  1  0.00000000  0.76680000  0.12609000  1.0
  Zr  Zr6  1  0.00000000  0.23320000  0.12609000  1.0
  Zr  Zr7  1  0.50000000  0.00000000  0.04530000  1.0
  Ni  Ni8  1  0.75004000  0.00000000  0.95802000  1.0
  Ni  Ni9  1  0.25004000  0.50000000  0.95802000  1.0
  Ni  Ni10  1  0.24996000  0.00000000  0.95802000  1.0
  Ni  Ni11  1  0.74996000  0.50000000  0.95802000  1.0
  Ni  Ni12  1  0.25004000  0.75000000  0.87406000  1.0
  Ni  Ni13  1  0.74996000  0.25000000  0.87406000  1.0
  Ni  Ni14  1  0.74996000  0.75000000  0.87406000  1.0
  Ni  Ni15  1  0.25004000  0.25000000  0.87406000  1.0
  Ni  Ni16  1  0.77317000  0.50000000  0.11863000  1.0
  Ni  Ni17  1  0.29580000  0.00000000  0.13159000  1.0
  Ni  Ni18  1  0.22683000  0.50000000  0.11863000  1.0
  Ni  Ni19  1  0.70420000  0.00000000  0.13159000  1.0
  Ni  Ni20  1  0.25156000  0.25146000  0.04274000  1.0
  Ni  Ni21  1  0.74844000  0.74854000  0.04274000  1.0
  Ni  Ni22  1  0.74844000  0.25146000  0.04274000  1.0
  Ni  Ni23  1  0.25156000  0.74854000  0.04274000  1.0
  Sb  Sb24  1  0.50000000  0.75000000  0.95802000  1.0
  Sb  Sb25  1  0.00000000  0.00000000  0.87406000  1.0
  Sb  Sb26  1  0.50000000  0.25000000  0.95802000  1.0
  Sb  Sb27  1  0.00000000  0.50000000  0.87406000  1.0
  Sb  Sb28  1  0.50000000  0.26255000  0.13154000  1.0
  Sb  Sb29  1  0.00000000  0.50000000  0.03972000  1.0
  Sb  Sb30  1  0.50000000  0.73745000  0.13154000  1.0
  Sb  Sb31  1  0.00000000  0.00000000  0.03929000  1.0
  C  C32  1  0.00000000  0.00000000  0.14848000  1.0
