# generated using pymatgen
data_Li8Al8Ag8Sn8CO
_symmetry_space_group_name_H-M   'P 1'
_cell_length_a   8.16098000
_cell_length_b   8.56020000
_cell_length_c   26.50010000
_cell_angle_alpha   90.00000000
_cell_angle_beta   90.00000000
_cell_angle_gamma   90.00000000
_symmetry_Int_Tables_number   1
_chemical_formula_structural   Li8Al8Ag8Sn8CO
_chemical_formula_sum   'Li8 Al8 Ag8 Sn8 C1 O1'
_cell_volume   1851.28694236
_cell_formula_units_Z   1
loop_
 _symmetry_equiv_pos_site_id
 _symmetry_equiv_pos_as_xyz
  1  'x, y, z'
loop_
 _atom_site_type_symbol
 _atom_site_label
 _atom_site_symmetry_multiplicity
 _atom_site_fract_x
 _atom_site_fract_y
 _atom_site_fract_z
 _atom_site_occupancy
  Li  Li0  1  0.00000000  0.00000000  0.12394000  1.0
  Li  Li1  1  0.00000000  0.00000000  0.95912000  1.0
  Li  Li2  1  0.00000000  0.50000000  0.12277000  1.0
  Li  Li3  1  0.00000000  0.50000000  0.95912000  1.0
  Li  Li4  1  0.50000000  0.00000000  0.12336000  1.0
  Li  Li5  1  0.50000000  0.00000000  0.95912000  1.0
  Li  Li6  1  0.50000000  0.50000000  0.12328000  1.0
  Li  Li7  1  0.50000000  0.50000000  0.95912000  1.0
  Al  Al8  1  0.00000000  0.74979000  0.04039000  1.0
  Al  Al9  1  0.00000000  0.75000000  0.87736000  1.0
  Al  Al10  1  0.00000000  0.25021000  0.04039000  1.0
  Al  Al11  1  0.00000000  0.25000000  0.87736000  1.0
  Al  Al12  1  0.50000000  0.74968000  0.03752000  1.0
  Al  Al13  1  0.50000000  0.75000000  0.87736000  1.0
  Al  Al14  1  0.50000000  0.25032000  0.03752000  1.0
  Al  Al15  1  0.50000000  0.25000000  0.87736000  1.0
  Ag  Ag16  1  0.73836000  0.74721000  0.11697000  1.0
  Ag  Ag17  1  0.75000000  0.75000000  0.95912000  1.0
  Ag  Ag18  1  0.73836000  0.25279000  0.11697000  1.0
  Ag  Ag19  1  0.75000000  0.25000000  0.95912000  1.0
  Ag  Ag20  1  0.26164000  0.74721000  0.11697000  1.0
  Ag  Ag21  1  0.25000000  0.75000000  0.95912000  1.0
  Ag  Ag22  1  0.26164000  0.25279000  0.11697000  1.0
  Ag  Ag23  1  0.25000000  0.25000000  0.95912000  1.0
  Sn  Sn24  1  0.75151000  0.00000000  0.04066000  1.0
  Sn  Sn25  1  0.75000000  0.00000000  0.87736000  1.0
  Sn  Sn26  1  0.75003000  0.50000000  0.03957000  1.0
  Sn  Sn27  1  0.75000000  0.50000000  0.87736000  1.0
  Sn  Sn28  1  0.24849000  0.00000000  0.04066000  1.0
  Sn  Sn29  1  0.25000000  0.00000000  0.87736000  1.0
  Sn  Sn30  1  0.24997000  0.50000000  0.03957000  1.0
  Sn  Sn31  1  0.25000000  0.50000000  0.87736000  1.0
  C  C32  1  0.00000000  0.00000000  0.20279000  1.0
  O  O33  1  0.00000000  0.00000000  0.24587000  1.0
