data_image0
_chemical_formula_structural       Y8In8Pd8Pt8
_chemical_formula_sum              "Y8 In8 Pd8 Pt8"
_cell_length_a       6.82696
_cell_length_b       9.65478
_cell_length_c       27.2411
_cell_angle_alpha    90
_cell_angle_beta     90
_cell_angle_gamma    90

_space_group_name_H-M_alt    "P 1"
_space_group_IT_number       1

loop_
  _space_group_symop_operation_xyz
  'x, y, z'

loop_
  _atom_site_type_symbol
  _atom_site_label
  _atom_site_symmetry_multiplicity
  _atom_site_fract_x
  _atom_site_fract_y
  _atom_site_fract_z
  _atom_site_occupancy
  Y   Y1        1.0  0.00000  0.25000  0.95570  1.0000
  Y   Y2        1.0  0.00000  0.75000  0.95570  1.0000
  Y   Y3        1.0  0.50000  0.50000  0.86709  1.0000
  Y   Y4        1.0  0.50000  0.00000  0.86709  1.0000
  Y   Y5        1.0  0.00231  0.75000  0.13399  1.0000
  Y   Y6        1.0  0.00231  0.25000  0.13399  1.0000
  Y   Y7        1.0  0.50214  1.00000  0.04422  1.0000
  Y   Y8        1.0  0.50214  0.50000  0.04422  1.0000
  In  In1       1.0  0.00000  0.00000  0.86709  1.0000
  In  In2       1.0  0.00000  0.50000  0.86709  1.0000
  In  In3       1.0  0.50000  0.75000  0.95570  1.0000
  In  In4       1.0  0.50000  0.25000  0.95570  1.0000
  In  In5       1.0  0.99964  0.50000  0.04649  1.0000
  In  In6       1.0  0.99964  1.00000  0.04649  1.0000
  In  In7       1.0  0.49748  0.25000  0.13718  1.0000
  In  In8       1.0  0.49748  0.75000  0.13717  1.0000
  Pd  Pd1       1.0  0.75000  0.00000  0.95570  1.0000
  Pd  Pd2       1.0  0.75000  0.50000  0.95570  1.0000
  Pd  Pd3       1.0  0.25000  0.25000  0.86709  1.0000
  Pd  Pd4       1.0  0.25000  0.75000  0.86709  1.0000
  Pd  Pd5       1.0  0.73198  0.50000  0.13057  1.0000
  Pd  Pd6       1.0  0.73197  0.00000  0.13057  1.0000
  Pd  Pd7       1.0  0.24625  0.75000  0.04593  1.0000
  Pd  Pd8       1.0  0.24625  0.25000  0.04593  1.0000
  Pt  Pt1       1.0  0.25000  0.00000  0.95570  1.0000
  Pt  Pt2       1.0  0.25000  0.50000  0.95570  1.0000
  Pt  Pt3       1.0  0.75000  0.25000  0.86709  1.0000
  Pt  Pt4       1.0  0.75000  0.75000  0.86709  1.0000
  Pt  Pt5       1.0  0.26057  0.50000  0.12787  1.0000
  Pt  Pt6       1.0  0.26058  1.00000  0.12787  1.0000
  Pt  Pt7       1.0  0.75894  0.75000  0.04702  1.0000
  Pt  Pt8       1.0  0.75894  0.25000  0.04702  1.0000
