# generated using pymatgen
data_Ni8Sn8Rh16C
_symmetry_space_group_name_H-M   Pmm2
_cell_length_a   6.23499000
_cell_length_b   8.81761000
_cell_length_c   26.61320000
_cell_angle_alpha   90.00000000
_cell_angle_beta   90.00000000
_cell_angle_gamma   90.00000000
_symmetry_Int_Tables_number   25
_chemical_formula_structural   Ni8Sn8Rh16C
_chemical_formula_sum   'Ni8 Sn8 Rh16 C1'
_cell_volume   1463.13279640
_cell_formula_units_Z   1
loop_
 _symmetry_equiv_pos_site_id
 _symmetry_equiv_pos_as_xyz
  1  'x, y, z'
  2  '-x, -y, z'
  3  '-x, y, z'
  4  'x, -y, z'
loop_
 _atom_site_type_symbol
 _atom_site_label
 _atom_site_symmetry_multiplicity
 _atom_site_fract_x
 _atom_site_fract_y
 _atom_site_fract_z
 _atom_site_occupancy
  Ni  Ni0  2  0.50000000  0.22278000  0.12920000  1.0
  Ni  Ni1  2  0.50000000  0.24998000  0.95858000  1.0
  Ni  Ni2  1  0.00000000  0.00000000  0.03908000  1.0
  Ni  Ni3  1  0.00000000  0.00000000  0.87575000  1.0
  Ni  Ni4  1  0.00000000  0.50000000  0.04463000  1.0
  Ni  Ni5  1  0.00000000  0.50000000  0.87575000  1.0
  Sn  Sn6  2  0.00000000  0.25002000  0.95858000  1.0
  Sn  Sn7  2  0.00000000  0.26631000  0.12985000  1.0
  Sn  Sn8  1  0.50000000  0.00000000  0.03906000  1.0
  Sn  Sn9  1  0.50000000  0.00000000  0.87575000  1.0
  Sn  Sn10  1  0.50000000  0.50000000  0.03855000  1.0
  Sn  Sn11  1  0.50000000  0.50000000  0.87575000  1.0
  Rh  Rh12  4  0.24733000  0.24891000  0.04282000  1.0
  Rh  Rh13  4  0.25000000  0.25002000  0.87575000  1.0
  Rh  Rh14  2  0.22445000  0.00000000  0.11927000  1.0
  Rh  Rh15  2  0.25000000  0.00000000  0.95858000  1.0
  Rh  Rh16  2  0.25000000  0.50000000  0.95858000  1.0
  Rh  Rh17  2  0.27383000  0.50000000  0.12177000  1.0
  C  C18  1  0.50000000  0.00000000  0.14822000  1.0
