# generated using pymatgen
data_Sc16Zn16C
_symmetry_space_group_name_H-M   'P 1'
_cell_length_a   6.70510000
_cell_length_b   9.48244000
_cell_length_c   27.11180000
_cell_angle_alpha   90.00000000
_cell_angle_beta   90.00000000
_cell_angle_gamma   90.00000000
_symmetry_Int_Tables_number   1
_chemical_formula_structural   Sc16Zn16C
_chemical_formula_sum   'Sc16 Zn16 C1'
_cell_volume   1723.78745119
_cell_formula_units_Z   1
loop_
 _symmetry_equiv_pos_site_id
 _symmetry_equiv_pos_as_xyz
  1  'x, y, z'
loop_
 _atom_site_type_symbol
 _atom_site_label
 _atom_site_symmetry_multiplicity
 _atom_site_fract_x
 _atom_site_fract_y
 _atom_site_fract_z
 _atom_site_occupancy
  Sc  Sc0  1  0.00000000  0.00000000  0.86884000  1.0
  Sc  Sc1  1  0.00000000  0.25000000  0.95628000  1.0
  Sc  Sc2  1  0.00000000  0.00000000  0.04730000  1.0
  Sc  Sc3  1  0.00000000  0.22687000  0.13216000  1.0
  Sc  Sc4  1  0.00000000  0.50000000  0.86884000  1.0
  Sc  Sc5  1  0.00000000  0.75000000  0.95628000  1.0
  Sc  Sc6  1  0.00000000  0.50000000  0.04150000  1.0
  Sc  Sc7  1  0.00000000  0.77313000  0.13216000  1.0
  Sc  Sc8  1  0.50000000  0.00000000  0.86884000  1.0
  Sc  Sc9  1  0.50000000  0.25000000  0.95628000  1.0
  Sc  Sc10  1  0.50000000  0.00000000  0.04206000  1.0
  Sc  Sc11  1  0.50000000  0.27484000  0.12926000  1.0
  Sc  Sc12  1  0.50000000  0.50000000  0.86884000  1.0
  Sc  Sc13  1  0.50000000  0.75000000  0.95628000  1.0
  Sc  Sc14  1  0.50000000  0.50000000  0.04242000  1.0
  Sc  Sc15  1  0.50000000  0.72516000  0.12926000  1.0
  Zn  Zn16  1  0.25000000  0.25000000  0.86884000  1.0
  Zn  Zn17  1  0.25000000  0.00000000  0.95628000  1.0
  Zn  Zn18  1  0.24991000  0.25207000  0.04348000  1.0
  Zn  Zn19  1  0.30269000  0.00000000  0.13256000  1.0
  Zn  Zn20  1  0.25000000  0.75000000  0.86884000  1.0
  Zn  Zn21  1  0.25000000  0.50000000  0.95628000  1.0
  Zn  Zn22  1  0.24991000  0.74793000  0.04348000  1.0
  Zn  Zn23  1  0.21825000  0.50000000  0.13010000  1.0
  Zn  Zn24  1  0.75000000  0.25000000  0.86884000  1.0
  Zn  Zn25  1  0.75000000  0.00000000  0.95628000  1.0
  Zn  Zn26  1  0.75009000  0.25207000  0.04348000  1.0
  Zn  Zn27  1  0.69731000  0.00000000  0.13256000  1.0
  Zn  Zn28  1  0.75000000  0.75000000  0.86884000  1.0
  Zn  Zn29  1  0.75000000  0.50000000  0.95628000  1.0
  Zn  Zn30  1  0.75009000  0.74793000  0.04348000  1.0
  Zn  Zn31  1  0.78175000  0.50000000  0.13010000  1.0
  C  C32  1  0.00000000  0.00000000  0.13141000  1.0
