# generated using pymatgen
data_Li4Ga4Ge4Pd4CO
_symmetry_space_group_name_H-M   P2
_cell_length_a   6.27488000
_cell_length_b   24.70620000
_cell_length_c   6.27488000
_cell_angle_alpha   90.00000000
_cell_angle_beta   90.00000000
_cell_angle_gamma   90.00000000
_symmetry_Int_Tables_number   3
_chemical_formula_structural   Li4Ga4Ge4Pd4CO
_chemical_formula_sum   'Li4 Ga4 Ge4 Pd4 C1 O1'
_cell_volume   972.78485919
_cell_formula_units_Z   1
loop_
 _symmetry_equiv_pos_site_id
 _symmetry_equiv_pos_as_xyz
  1  'x, y, z'
  2  '-x, y, -z'
loop_
 _atom_site_type_symbol
 _atom_site_label
 _atom_site_symmetry_multiplicity
 _atom_site_fract_x
 _atom_site_fract_y
 _atom_site_fract_z
 _atom_site_occupancy
  Li  Li0  2  0.24136000  0.03371000  0.74046000  1.0
  Li  Li1  2  0.25000000  0.90476000  0.25001000  1.0
  Ga  Ga2  1  0.00000000  0.10674000  0.00000000  1.0
  Ga  Ga3  1  0.00000000  0.96825000  0.50000000  1.0
  Ga  Ga4  1  0.50000000  0.10687000  0.50000000  1.0
  Ga  Ga5  1  0.50000000  0.96825000  0.00000000  1.0
  Ge  Ge6  1  0.00000000  0.10063000  0.50000000  1.0
  Ge  Ge7  1  0.00000000  0.96825000  0.00000000  1.0
  Ge  Ge8  1  0.50000000  0.08453000  0.00000000  1.0
  Ge  Ge9  1  0.50000000  0.96825000  0.50000000  1.0
  Pd  Pd10  2  0.24080000  0.02916000  0.25924000  1.0
  Pd  Pd11  2  0.25000000  0.90476000  0.75001000  1.0
  C  C12  1  0.50000000  0.17621000  0.00000000  1.0
  O  O13  1  0.50000000  0.22254000  0.00000000  1.0
