# generated using pymatgen
data_Ga16Ir16C
_symmetry_space_group_name_H-M   'P 1'
_cell_length_a   8.67469000
_cell_length_b   6.13393000
_cell_length_c   26.50600000
_cell_angle_alpha   90.00000000
_cell_angle_beta   90.00000000
_cell_angle_gamma   90.00000000
_symmetry_Int_Tables_number   1
_chemical_formula_structural   Ga16Ir16C
_chemical_formula_sum   'Ga16 Ir16 C1'
_cell_volume   1410.38270229
_cell_formula_units_Z   1
loop_
 _symmetry_equiv_pos_site_id
 _symmetry_equiv_pos_as_xyz
  1  'x, y, z'
loop_
 _atom_site_type_symbol
 _atom_site_label
 _atom_site_symmetry_multiplicity
 _atom_site_fract_x
 _atom_site_fract_y
 _atom_site_fract_z
 _atom_site_occupancy
  Ga  Ga0  1  0.75000000  0.00000000  0.12273000  1.0
  Ga  Ga1  1  0.00000000  0.00000000  0.04091000  1.0
  Ga  Ga2  1  0.75013000  0.99623000  0.95908000  1.0
  Ga  Ga3  1  0.00000000  0.94688000  0.85838000  1.0
  Ga  Ga4  1  0.25000000  0.00000000  0.12273000  1.0
  Ga  Ga5  1  0.50000000  0.00000000  0.04091000  1.0
  Ga  Ga6  1  0.24987000  0.99623000  0.95908000  1.0
  Ga  Ga7  1  0.50000000  0.00927000  0.86915000  1.0
  Ga  Ga8  1  0.75000000  0.50000000  0.12273000  1.0
  Ga  Ga9  1  0.00000000  0.50000000  0.04091000  1.0
  Ga  Ga10  1  0.75013000  0.50364000  0.95909000  1.0
  Ga  Ga11  1  0.00000000  0.55208000  0.85838000  1.0
  Ga  Ga12  1  0.25000000  0.50000000  0.12273000  1.0
  Ga  Ga13  1  0.50000000  0.50000000  0.04091000  1.0
  Ga  Ga14  1  0.24987000  0.50364000  0.95909000  1.0
  Ga  Ga15  1  0.50000000  0.49052000  0.86913000  1.0
  Ir  Ir16  1  0.00000000  0.25000000  0.12273000  1.0
  Ir  Ir17  1  0.25000000  0.25000000  0.04091000  1.0
  Ir  Ir18  1  0.00000000  0.24986000  0.96099000  1.0
  Ir  Ir19  1  0.25031000  0.24986000  0.88395000  1.0
  Ir  Ir20  1  0.50000000  0.25000000  0.12273000  1.0
  Ir  Ir21  1  0.75000000  0.25000000  0.04091000  1.0
  Ir  Ir22  1  0.50000000  0.24995000  0.96096000  1.0
  Ir  Ir23  1  0.74969000  0.24986000  0.88395000  1.0
  Ir  Ir24  1  0.00000000  0.75000000  0.12273000  1.0
  Ir  Ir25  1  0.25000000  0.75000000  0.04091000  1.0
  Ir  Ir26  1  0.00000000  0.74989000  0.96160000  1.0
  Ir  Ir27  1  0.25715000  0.74979000  0.88164000  1.0
  Ir  Ir28  1  0.50000000  0.75000000  0.12273000  1.0
  Ir  Ir29  1  0.75000000  0.75000000  0.04091000  1.0
  Ir  Ir30  1  0.50000000  0.74995000  0.96189000  1.0
  Ir  Ir31  1  0.74285000  0.74979000  0.88164000  1.0
  C  C32  1  0.00000000  0.24942000  0.87958000  1.0
