# generated using pymatgen
data_Ga16Ir16C
_symmetry_space_group_name_H-M   Pm
_cell_length_a   6.13393000
_cell_length_b   8.67469000
_cell_length_c   26.50600000
_cell_angle_alpha   90.00000000
_cell_angle_beta   90.00000000
_cell_angle_gamma   90.00000000
_symmetry_Int_Tables_number   6
_chemical_formula_structural   Ga16Ir16C
_chemical_formula_sum   'Ga16 Ir16 C1'
_cell_volume   1410.38270229
_cell_formula_units_Z   1
loop_
 _symmetry_equiv_pos_site_id
 _symmetry_equiv_pos_as_xyz
  1  'x, y, z'
  2  'x, -y, z'
loop_
 _atom_site_type_symbol
 _atom_site_label
 _atom_site_symmetry_multiplicity
 _atom_site_fract_x
 _atom_site_fract_y
 _atom_site_fract_z
 _atom_site_occupancy
  Ga  Ga0  2  0.00000000  0.25000000  0.87727000  1.0
  Ga  Ga1  2  0.50000000  0.25000000  0.87727000  1.0
  Ga  Ga2  2  0.50364000  0.24987000  0.04091000  1.0
  Ga  Ga3  2  0.99623000  0.24987000  0.04092000  1.0
  Ga  Ga4  1  0.00000000  0.00000000  0.95909000  1.0
  Ga  Ga5  1  0.00000000  0.50000000  0.95909000  1.0
  Ga  Ga6  1  0.00927000  0.50000000  0.13085000  1.0
  Ga  Ga7  1  0.49052000  0.50000000  0.13087000  1.0
  Ga  Ga8  1  0.50000000  0.00000000  0.95909000  1.0
  Ga  Ga9  1  0.50000000  0.50000000  0.95909000  1.0
  Ga  Ga10  1  0.55208000  0.00000000  0.14162000  1.0
  Ga  Ga11  1  0.94688000  0.00000000  0.14162000  1.0
  Ir  Ir12  2  0.24986000  0.25031000  0.11605000  1.0
  Ir  Ir13  2  0.25000000  0.25000000  0.95909000  1.0
  Ir  Ir14  2  0.74979000  0.25715000  0.11836000  1.0
  Ir  Ir15  2  0.75000000  0.25000000  0.95909000  1.0
  Ir  Ir16  1  0.24986000  0.00000000  0.03901000  1.0
  Ir  Ir17  1  0.24995000  0.50000000  0.03904000  1.0
  Ir  Ir18  1  0.25000000  0.00000000  0.87727000  1.0
  Ir  Ir19  1  0.25000000  0.50000000  0.87727000  1.0
  Ir  Ir20  1  0.74989000  0.00000000  0.03840000  1.0
  Ir  Ir21  1  0.74995000  0.50000000  0.03811000  1.0
  Ir  Ir22  1  0.75000000  0.00000000  0.87727000  1.0
  Ir  Ir23  1  0.75000000  0.50000000  0.87727000  1.0
  C  C24  1  0.24942000  0.00000000  0.12042000  1.0
