# generated using pymatgen
data_Li4Sc4Ga4Ge4CO
_symmetry_space_group_name_H-M   P1
_cell_length_a   5.77599000
_cell_length_b   8.07712000
_cell_length_c   24.32640000
_cell_angle_alpha   90.00000000
_cell_angle_beta   90.00000000
_cell_angle_gamma   90.00000000
_symmetry_Int_Tables_number   1
_chemical_formula_structural   Li4Sc4Ga4Ge4CO
_chemical_formula_sum   'Li4 Sc4 Ga4 Ge4 C1 O1'
_cell_volume   1134.90840249
_cell_formula_units_Z   1
loop_
 _symmetry_equiv_pos_site_id
 _symmetry_equiv_pos_as_xyz
  1  'x, y, z'
loop_
 _atom_site_type_symbol
 _atom_site_label
 _atom_site_symmetry_multiplicity
 _atom_site_fract_x
 _atom_site_fract_y
 _atom_site_fract_z
 _atom_site_occupancy
  Li  Li0  1  0.23731000  0.25000000  0.97036000  1.0
  Li  Li1  1  0.23731000  0.75000000  0.97036000  1.0
  Li  Li2  1  0.63845000  0.24998000  0.09773000  1.0
  Li  Li3  1  0.64817000  0.75002000  0.11674000  1.0
  Sc  Sc4  1  0.50000000  0.00000000  0.91108000  1.0
  Sc  Sc5  1  0.50000000  0.50000000  0.91108000  1.0
  Sc  Sc6  1  0.91448000  0.51143000  0.03472000  1.0
  Sc  Sc7  1  0.91459000  0.98857000  0.03472000  1.0
  Ga  Ga8  1  0.00000000  0.00000000  0.91108000  1.0
  Ga  Ga9  1  0.00000000  0.50000000  0.91108000  1.0
  Ga  Ga10  1  0.42749000  0.51973000  0.05035000  1.0
  Ga  Ga11  1  0.42762000  0.98021000  0.05032000  1.0
  Ge  Ge12  1  0.13996000  0.25003000  0.08423000  1.0
  Ge  Ge13  1  0.15931000  0.74995000  0.09049000  1.0
  Ge  Ge14  1  0.73731000  0.25000000  0.97036000  1.0
  Ge  Ge15  1  0.73731000  0.75000000  0.97036000  1.0
  C  C16  1  0.26287000  0.25002000  0.15670000  1.0
  O  O17  1  0.32559000  0.25002000  0.20236000  1.0
