# generated using pymatgen
data_Hf16Pt16CO
_symmetry_space_group_name_H-M   'P 1'
_cell_length_a   6.65903000
_cell_length_b   9.41730000
_cell_length_c   27.06300000
_cell_angle_alpha   90.00000000
_cell_angle_beta   90.00000000
_cell_angle_gamma   90.00000000
_symmetry_Int_Tables_number   1
_chemical_formula_structural   Hf16Pt16CO
_chemical_formula_sum   'Hf16 Pt16 C1 O1'
_cell_volume   1697.12298216
_cell_formula_units_Z   1
loop_
 _symmetry_equiv_pos_site_id
 _symmetry_equiv_pos_as_xyz
  1  'x, y, z'
loop_
 _atom_site_type_symbol
 _atom_site_label
 _atom_site_symmetry_multiplicity
 _atom_site_fract_x
 _atom_site_fract_y
 _atom_site_fract_z
 _atom_site_occupancy
  Hf  Hf0  1  0.00000000  0.75000000  0.86951000  1.0
  Hf  Hf1  1  0.00000000  0.00000000  0.95650000  1.0
  Hf  Hf2  1  0.00000000  0.75962000  0.04299000  1.0
  Hf  Hf3  1  0.00000000  0.00000000  0.13213000  1.0
  Hf  Hf4  1  0.00000000  0.25000000  0.86951000  1.0
  Hf  Hf5  1  0.00000000  0.50000000  0.95650000  1.0
  Hf  Hf6  1  0.00000000  0.24038000  0.04299000  1.0
  Hf  Hf7  1  0.00000000  0.50000000  0.13323000  1.0
  Hf  Hf8  1  0.50000000  0.75000000  0.86951000  1.0
  Hf  Hf9  1  0.50000000  0.00000000  0.95650000  1.0
  Hf  Hf10  1  0.50000000  0.74258000  0.04241000  1.0
  Hf  Hf11  1  0.50000000  0.00000000  0.13446000  1.0
  Hf  Hf12  1  0.50000000  0.25000000  0.86951000  1.0
  Hf  Hf13  1  0.50000000  0.50000000  0.95650000  1.0
  Hf  Hf14  1  0.50000000  0.25742000  0.04241000  1.0
  Hf  Hf15  1  0.50000000  0.50000000  0.12734000  1.0
  Pt  Pt16  1  0.25000000  0.00000000  0.86951000  1.0
  Pt  Pt17  1  0.25000000  0.75000000  0.95650000  1.0
  Pt  Pt18  1  0.28194000  0.00000000  0.04924000  1.0
  Pt  Pt19  1  0.25084000  0.74835000  0.12316000  1.0
  Pt  Pt20  1  0.25000000  0.50000000  0.86951000  1.0
  Pt  Pt21  1  0.25000000  0.25000000  0.95650000  1.0
  Pt  Pt22  1  0.21719000  0.50000000  0.04762000  1.0
  Pt  Pt23  1  0.25084000  0.25165000  0.12316000  1.0
  Pt  Pt24  1  0.75000000  0.00000000  0.86951000  1.0
  Pt  Pt25  1  0.75000000  0.75000000  0.95650000  1.0
  Pt  Pt26  1  0.71806000  0.00000000  0.04924000  1.0
  Pt  Pt27  1  0.74916000  0.74835000  0.12316000  1.0
  Pt  Pt28  1  0.75000000  0.50000000  0.86951000  1.0
  Pt  Pt29  1  0.75000000  0.25000000  0.95650000  1.0
  Pt  Pt30  1  0.78281000  0.50000000  0.04762000  1.0
  Pt  Pt31  1  0.74916000  0.25165000  0.12316000  1.0
  C  C32  1  0.00000000  0.00000000  0.21459000  1.0
  O  O33  1  0.00000000  0.00000000  0.25731000  1.0
