data_image0
_chemical_formula_structural       BeCoBeCoBeCoBeCoBeCoBeCoBeCoBeCoCO
_chemical_formula_sum              "Be8 Co8 C1 O1"
_cell_length_a       5.19112
_cell_length_b       5.19112
_cell_length_c       23.8933
_cell_angle_alpha    90
_cell_angle_beta     90
_cell_angle_gamma    90

_space_group_name_H-M_alt    "P 1"
_space_group_IT_number       1

loop_
  _space_group_symop_operation_xyz
  'x, y, z'

loop_
  _atom_site_type_symbol
  _atom_site_label
  _atom_site_symmetry_multiplicity
  _atom_site_fract_x
  _atom_site_fract_y
  _atom_site_fract_z
  _atom_site_occupancy
  Be  Be1       1.0  0.00000  0.00000  0.89857  1.0000
  Co  Co1       1.0  0.25000  0.25000  0.95289  1.0000
  Be  Be2       1.0  0.00000  0.00000  0.00720  1.0000
  Co  Co2       1.0  0.25000  0.25000  0.06152  1.0000
  Be  Be3       1.0  0.00000  0.50000  0.89857  1.0000
  Co  Co3       1.0  0.25000  0.75000  0.95289  1.0000
  Be  Be4       1.0  0.00000  0.50000  0.00720  1.0000
  Co  Co4       1.0  0.25000  0.75000  0.06152  1.0000
  Be  Be5       1.0  0.50000  0.00000  0.89857  1.0000
  Co  Co5       1.0  0.75000  0.25000  0.95289  1.0000
  Be  Be6       1.0  0.50000  0.00000  0.00720  1.0000
  Co  Co6       1.0  0.75000  0.25000  0.06152  1.0000
  Be  Be7       1.0  0.50000  0.50000  0.89857  1.0000
  Co  Co7       1.0  0.75000  0.75000  0.95289  1.0000
  Be  Be8       1.0  0.50000  0.50000  0.00720  1.0000
  Co  Co8       1.0  0.75000  0.75000  0.06152  1.0000
  C   C1        1.0  0.25000  0.25000  0.14104  1.0000
  O   O1        1.0  0.25000  0.25000  0.18917  1.0000
