# generated using pymatgen
data_LiInGeAu
_symmetry_space_group_name_H-M   'P 1'
_cell_length_a   8.46544000
_cell_length_b   6.00109000
_cell_length_c   24.49980000
_cell_angle_alpha   90.00000000
_cell_angle_beta   90.00000000
_cell_angle_gamma   90.00000000
_symmetry_Int_Tables_number   1
_chemical_formula_structural   LiInGeAu
_chemical_formula_sum   'Li4 In4 Ge4 Au4'
_cell_volume   1244.63558920
_cell_formula_units_Z   4
loop_
 _symmetry_equiv_pos_site_id
 _symmetry_equiv_pos_as_xyz
  1  'x, y, z'
loop_
 _atom_site_type_symbol
 _atom_site_label
 _atom_site_symmetry_multiplicity
 _atom_site_fract_x
 _atom_site_fract_y
 _atom_site_fract_z
 _atom_site_occupancy
  Li  Li0  1  0.00000000  0.24460000  0.03061000  1.0
  Li  Li1  1  0.00000000  0.72984000  0.91016000  1.0
  Li  Li2  1  0.50000000  0.24460000  0.03061000  1.0
  Li  Li3  1  0.50000000  0.72980000  0.91015000  1.0
  In  In4  1  0.75000000  0.50000000  0.09183000  1.0
  In  In5  1  0.75001000  0.99771000  0.96085000  1.0
  In  In6  1  0.25000000  0.50000000  0.09183000  1.0
  In  In7  1  0.24999000  0.99771000  0.96085000  1.0
  Ge  Ge8  1  0.00000000  0.74460000  0.03061000  1.0
  Ge  Ge9  1  0.00000000  0.27694000  0.91294000  1.0
  Ge  Ge10  1  0.50000000  0.74460000  0.03061000  1.0
  Ge  Ge11  1  0.50000000  0.27687000  0.91301000  1.0
  Au  Au12  1  0.75000000  0.00000000  0.09183000  1.0
  Au  Au13  1  0.75006000  0.50270000  0.96316000  1.0
  Au  Au14  1  0.25000000  0.00000000  0.09183000  1.0
  Au  Au15  1  0.24994000  0.50270000  0.96316000  1.0
