data_image0
_chemical_formula_structural       Li16Ga8Rh8CO
_chemical_formula_sum              "Li16 Ga8 Rh8 C1 O1"
_cell_length_a       6.03399
_cell_length_b       8.53335
_cell_length_c       26.4
_cell_angle_alpha    90
_cell_angle_beta     90
_cell_angle_gamma    90

_space_group_name_H-M_alt    "P 1"
_space_group_IT_number       1

loop_
  _space_group_symop_operation_xyz
  'x, y, z'

loop_
  _atom_site_type_symbol
  _atom_site_label
  _atom_site_symmetry_multiplicity
  _atom_site_fract_x
  _atom_site_fract_y
  _atom_site_fract_z
  _atom_site_occupancy
  Li  Li1       1.0  0.00000  0.75000  0.95960  1.0000
  Li  Li2       1.0  0.50000  0.00000  0.87879  1.0000
  Li  Li3       1.0  0.00000  0.25000  0.95960  1.0000
  Li  Li4       1.0  0.50000  0.50000  0.87879  1.0000
  Li  Li5       1.0  0.25000  0.25000  0.87879  1.0000
  Li  Li6       1.0  0.25000  0.75000  0.87879  1.0000
  Li  Li7       1.0  0.75000  0.50000  0.95960  1.0000
  Li  Li8       1.0  0.75000  0.00000  0.95960  1.0000
  Li  Li9       1.0  0.00088  0.25000  0.12225  1.0000
  Li  Li10      1.0  0.50928  0.50054  0.03937  1.0000
  Li  Li11      1.0  0.01089  0.75000  0.12172  1.0000
  Li  Li12      1.0  0.50929  0.99946  0.03937  1.0000
  Li  Li13      1.0  0.24248  0.74999  0.03663  1.0000
  Li  Li14      1.0  0.24816  0.24999  0.03715  1.0000
  Li  Li15      1.0  0.72338  0.99199  0.13898  1.0000
  Li  Li16      1.0  0.72337  0.50802  0.13897  1.0000
  Ga  Ga1       1.0  0.25000  0.00000  0.95960  1.0000
  Ga  Ga2       1.0  0.25000  0.50000  0.95960  1.0000
  Ga  Ga3       1.0  0.75000  0.75000  0.87879  1.0000
  Ga  Ga4       1.0  0.75000  0.25000  0.87879  1.0000
  Ga  Ga5       1.0  0.26601  0.49935  0.11995  1.0000
  Ga  Ga6       1.0  0.26600  0.00066  0.11995  1.0000
  Ga  Ga7       1.0  0.74940  0.24999  0.03881  1.0000
  Ga  Ga8       1.0  0.75734  0.74999  0.03930  1.0000
  Rh  Rh1       1.0  0.00000  0.00000  0.87879  1.0000
  Rh  Rh2       1.0  0.50000  0.25000  0.95960  1.0000
  Rh  Rh3       1.0  0.50000  0.75000  0.95960  1.0000
  Rh  Rh4       1.0  0.00000  0.50000  0.87879  1.0000
  Rh  Rh5       1.0  0.99519  0.49765  0.04610  1.0000
  Rh  Rh6       1.0  0.48649  0.75001  0.11110  1.0000
  Rh  Rh7       1.0  0.50438  0.25002  0.12216  1.0000
  Rh  Rh8       1.0  0.99516  0.00232  0.04609  1.0000
  C   C1        1.0  0.58883  0.25000  0.19032  1.0000
  O   O1        1.0  0.62781  0.25000  0.23385  1.0000
