# generated using pymatgen
data_Li16Ga8Rh8CO
_symmetry_space_group_name_H-M   'P 1'
_cell_length_a   8.53335000
_cell_length_b   6.03399000
_cell_length_c   26.40000000
_cell_angle_alpha   90.00000000
_cell_angle_beta   90.00000000
_cell_angle_gamma   90.00000000
_symmetry_Int_Tables_number   1
_chemical_formula_structural   Li16Ga8Rh8CO
_chemical_formula_sum   'Li16 Ga8 Rh8 C1 O1'
_cell_volume   1359.33992216
_cell_formula_units_Z   1
loop_
 _symmetry_equiv_pos_site_id
 _symmetry_equiv_pos_as_xyz
  1  'x, y, z'
loop_
 _atom_site_type_symbol
 _atom_site_label
 _atom_site_symmetry_multiplicity
 _atom_site_fract_x
 _atom_site_fract_y
 _atom_site_fract_z
 _atom_site_occupancy
  Li  Li0  1  0.50000000  1.00000000  0.04040000  1.0
  Li  Li1  1  0.75000000  0.50000000  0.12121000  1.0
  Li  Li2  1  0.00000000  0.00000000  0.04040000  1.0
  Li  Li3  1  0.25000000  0.50000000  0.12121000  1.0
  Li  Li4  1  0.00000000  0.25000000  0.12121000  1.0
  Li  Li5  1  0.50000000  0.25000000  0.12121000  1.0
  Li  Li6  1  0.25000000  0.75000000  0.04040000  1.0
  Li  Li7  1  0.75000000  0.75000000  0.04040000  1.0
  Li  Li8  1  0.00000000  0.99858000  0.87666000  1.0
  Li  Li9  1  0.25018000  0.50901000  0.96085000  1.0
  Li  Li10  1  0.50000000  0.00782000  0.87846000  1.0
  Li  Li11  1  0.74982000  0.50901000  0.96085000  1.0
  Li  Li12  1  0.50000000  0.24243000  0.96335000  1.0
  Li  Li13  1  0.00000000  0.24614000  0.96165000  1.0
  Li  Li14  1  0.74205000  0.72189000  0.86102000  1.0
  Li  Li15  1  0.25795000  0.72189000  0.86102000  1.0
  Ga  Ga16  1  0.75000000  0.25000000  0.04040000  1.0
  Ga  Ga17  1  0.25000000  0.25000000  0.04040000  1.0
  Ga  Ga18  1  0.50000000  0.75000000  0.12121000  1.0
  Ga  Ga19  1  0.00000000  0.75000000  0.12121000  1.0
  Ga  Ga20  1  0.25154000  0.26667000  0.88062000  1.0
  Ga  Ga21  1  0.74846000  0.26667000  0.88062000  1.0
  Ga  Ga22  1  0.00000000  0.75150000  0.96106000  1.0
  Ga  Ga23  1  0.50000000  0.75660000  0.96113000  1.0
  Rh  Rh24  1  0.75000000  0.00000000  0.12121000  1.0
  Rh  Rh25  1  0.00000000  0.50000000  0.04040000  1.0
  Rh  Rh26  1  0.50000000  0.50000000  0.04040000  1.0
  Rh  Rh27  1  0.25000000  0.00000000  0.12121000  1.0
  Rh  Rh28  1  0.24956000  0.99285000  0.95409000  1.0
  Rh  Rh29  1  0.50000000  0.48851000  0.88861000  1.0
  Rh  Rh30  1  0.00000000  0.50636000  0.87811000  1.0
  Rh  Rh31  1  0.75044000  0.99285000  0.95409000  1.0
  C  C32  1  0.00000000  0.59366000  0.81027000  1.0
  O  O33  1  0.00000000  0.62872000  0.76664000  1.0
