# generated using pymatgen
data_Li16Ga8Rh8CO
_symmetry_space_group_name_H-M   Pm
_cell_length_a   6.03399000
_cell_length_b   8.53335000
_cell_length_c   26.40000000
_cell_angle_alpha   90.00000000
_cell_angle_beta   90.00000000
_cell_angle_gamma   90.00000000
_symmetry_Int_Tables_number   6
_chemical_formula_structural   Li16Ga8Rh8CO
_chemical_formula_sum   'Li16 Ga8 Rh8 C1 O1'
_cell_volume   1359.33992216
_cell_formula_units_Z   1
loop_
 _symmetry_equiv_pos_site_id
 _symmetry_equiv_pos_as_xyz
  1  'x, y, z'
  2  'x, -y, z'
loop_
 _atom_site_type_symbol
 _atom_site_label
 _atom_site_symmetry_multiplicity
 _atom_site_fract_x
 _atom_site_fract_y
 _atom_site_fract_z
 _atom_site_occupancy
  Li  Li0  2  0.50000000  0.25000000  0.87879000  1.0
  Li  Li1  2  0.50901000  0.25018000  0.03915000  1.0
  Li  Li2  2  0.72189000  0.25795000  0.13898000  1.0
  Li  Li3  2  0.75000000  0.25000000  0.95960000  1.0
  Li  Li4  1  -0.00000000  0.50000000  0.95960000  1.0
  Li  Li5  1  0.00000000  0.00000000  0.95960000  1.0
  Li  Li6  1  0.00782000  0.50000000  0.12154000  1.0
  Li  Li7  1  0.24243000  0.50000000  0.03665000  1.0
  Li  Li8  1  0.24614000  0.00000000  0.03835000  1.0
  Li  Li9  1  0.25000000  0.00000000  0.87879000  1.0
  Li  Li10  1  0.25000000  0.50000000  0.87879000  1.0
  Li  Li11  1  0.99858000  0.00000000  0.12334000  1.0
  Ga  Ga12  2  0.25000000  0.25000000  0.95960000  1.0
  Ga  Ga13  2  0.26667000  0.25154000  0.11938000  1.0
  Ga  Ga14  1  0.75000000  0.00000000  0.87879000  1.0
  Ga  Ga15  1  0.75000000  0.50000000  0.87879000  1.0
  Ga  Ga16  1  0.75150000  0.00000000  0.03894000  1.0
  Ga  Ga17  1  0.75660000  0.50000000  0.03887000  1.0
  Rh  Rh18  2  0.00000000  0.25000000  0.87879000  1.0
  Rh  Rh19  2  0.99285000  0.24956000  0.04591000  1.0
  Rh  Rh20  1  0.48851000  0.50000000  0.11139000  1.0
  Rh  Rh21  1  0.50000000  0.00000000  0.95960000  1.0
  Rh  Rh22  1  0.50000000  0.50000000  0.95960000  1.0
  Rh  Rh23  1  0.50636000  0.00000000  0.12189000  1.0
  C  C24  1  0.59366000  0.00000000  0.18973000  1.0
  O  O25  1  0.62872000  0.00000000  0.23336000  1.0
