# generated using pymatgen
data_Li4Ga4Ni4Pd4C
_symmetry_space_group_name_H-M   'P 1'
_cell_length_a   5.93220000
_cell_length_b   5.93220000
_cell_length_c   24.44920000
_cell_angle_alpha   90.00000000
_cell_angle_beta   90.00000000
_cell_angle_gamma   90.00000000
_symmetry_Int_Tables_number   1
_chemical_formula_structural   Li4Ga4Ni4Pd4C
_chemical_formula_sum   'Li4 Ga4 Ni4 Pd4 C1'
_cell_volume   860.39171994
_cell_formula_units_Z   1
loop_
 _symmetry_equiv_pos_site_id
 _symmetry_equiv_pos_as_xyz
  1  'x, y, z'
loop_
 _atom_site_type_symbol
 _atom_site_label
 _atom_site_symmetry_multiplicity
 _atom_site_fract_x
 _atom_site_fract_y
 _atom_site_fract_z
 _atom_site_occupancy
  Li  Li0  1  0.50002500  0.49997500  0.09099000  1
  Li  Li1  1  0.99998000  0.49995000  0.96170000  1
  Li  Li2  1  0.50005000  0.00002000  0.96170000  1
  Li  Li3  1  0.00002500  0.99997500  0.09099000  1
  Ga  Ga4  1  1.00000000  0.49995000  0.09099000  1
  Ga  Ga5  1  0.50006000  0.49994000  0.97389000  1
  Ga  Ga6  1  0.00007000  0.99993000  0.96322000  1
  Ga  Ga7  1  0.50005000  1.00000000  0.09099000  1
  Ni  Ni8  1  0.25000000  0.24995000  0.03033000  1
  Ni  Ni9  1  0.71358000  0.28642000  0.90222000  1
  Ni  Ni10  1  0.28640500  0.71359500  0.90222000  1
  Ni  Ni11  1  0.75005000  0.75000000  0.03033000  1
  Pd  Pd12  1  0.25002500  0.74997500  0.03033000  1
  Pd  Pd13  1  0.75372000  0.75370000  0.89957000  1
  Pd  Pd14  1  0.24630000  0.24628000  0.89957000  1
  Pd  Pd15  1  0.75002500  0.24997500  0.03033000  1
  C  C16  1  0.49999000  0.50001000  0.88460000  1
