# generated using pymatgen
data_LiYInGe
_symmetry_space_group_name_H-M   'P 1'
_cell_length_a   6.03525000
_cell_length_b   9.31878000
_cell_length_c   24.52620000
_cell_angle_alpha   90.00000000
_cell_angle_beta   90.00000000
_cell_angle_gamma   90.00000000
_symmetry_Int_Tables_number   1
_chemical_formula_structural   LiYInGe
_chemical_formula_sum   'Li4 Y4 In4 Ge4'
_cell_volume   1379.38210995
_cell_formula_units_Z   4
loop_
 _symmetry_equiv_pos_site_id
 _symmetry_equiv_pos_as_xyz
  1  'x, y, z'
loop_
 _atom_site_type_symbol
 _atom_site_label
 _atom_site_symmetry_multiplicity
 _atom_site_fract_x
 _atom_site_fract_y
 _atom_site_fract_z
 _atom_site_occupancy
  Li  Li0  1  0.74758000  0.25000000  0.96924000  1.0
  Li  Li1  1  0.29457000  0.25003000  0.09180000  1.0
  Li  Li2  1  0.74758000  0.75000000  0.96924000  1.0
  Li  Li3  1  0.29465000  0.74998000  0.09179000  1.0
  Y  Y4  1  0.50000000  0.00000000  0.90773000  1.0
  Y  Y5  1  0.00911000  0.00000000  0.03060000  1.0
  Y  Y6  1  0.50000000  0.50000000  0.90773000  1.0
  Y  Y7  1  0.00925000  0.50000000  0.03062000  1.0
  In  In8  1  0.24758000  0.25000000  0.96924000  1.0
  In  In9  1  0.77930000  0.25009000  0.09641000  1.0
  In  In10  1  0.24758000  0.75000000  0.96924000  1.0
  In  In11  1  0.77933000  0.74993000  0.09641000  1.0
  Ge  Ge12  1  0.00000000  0.00000000  0.90773000  1.0
  Ge  Ge13  1  0.51562000  0.00006000  0.04515000  1.0
  Ge  Ge14  1  0.00000000  0.50000000  0.90773000  1.0
  Ge  Ge15  1  0.51566000  0.49998000  0.04512000  1.0
