# generated using pymatgen
data_Ti16Pd16C
_symmetry_space_group_name_H-M   'P 1'
_cell_length_a   9.00957000
_cell_length_b   6.37073000
_cell_length_c   26.75720000
_cell_angle_alpha   90.00000000
_cell_angle_beta   90.00000000
_cell_angle_gamma   90.00000000
_symmetry_Int_Tables_number   1
_chemical_formula_structural   Ti16Pd16C
_chemical_formula_sum   'Ti16 Pd16 C1'
_cell_volume   1535.79740073
_cell_formula_units_Z   1
loop_
 _symmetry_equiv_pos_site_id
 _symmetry_equiv_pos_as_xyz
  1  'x, y, z'
loop_
 _atom_site_type_symbol
 _atom_site_label
 _atom_site_symmetry_multiplicity
 _atom_site_fract_x
 _atom_site_fract_y
 _atom_site_fract_z
 _atom_site_occupancy
  Ti  Ti0  1  0.25000000  0.50000000  0.12627000  1.0
  Ti  Ti1  1  0.00000000  0.50000000  0.04209000  1.0
  Ti  Ti2  1  0.24991000  0.50000000  0.94994000  1.0
  Ti  Ti3  1  0.02203000  0.50000000  0.87463000  1.0
  Ti  Ti4  1  0.75000000  0.50000000  0.12627000  1.0
  Ti  Ti5  1  0.50000000  0.50000000  0.04209000  1.0
  Ti  Ti6  1  0.74996000  0.50000000  0.95915000  1.0
  Ti  Ti7  1  0.47804000  0.50000000  0.87458000  1.0
  Ti  Ti8  1  0.25000000  0.00000000  0.12627000  1.0
  Ti  Ti9  1  0.00000000  0.00000000  0.04209000  1.0
  Ti  Ti10  1  0.24992000  0.00000000  0.95775000  1.0
  Ti  Ti11  1  0.98803000  0.00000000  0.87738000  1.0
  Ti  Ti12  1  0.75000000  0.00000000  0.12627000  1.0
  Ti  Ti13  1  0.50000000  0.00000000  0.04209000  1.0
  Ti  Ti14  1  0.75001000  0.00000000  0.95838000  1.0
  Ti  Ti15  1  0.51228000  0.00000000  0.87717000  1.0
  Pd  Pd16  1  0.00000000  0.75000000  0.12627000  1.0
  Pd  Pd17  1  0.25000000  0.75000000  0.04209000  1.0
  Pd  Pd18  1  0.99674000  0.74163000  0.95993000  1.0
  Pd  Pd19  1  0.25045000  0.80575000  0.87256000  1.0
  Pd  Pd20  1  0.50000000  0.75000000  0.12627000  1.0
  Pd  Pd21  1  0.75000000  0.75000000  0.04209000  1.0
  Pd  Pd22  1  0.50319000  0.74172000  0.95980000  1.0
  Pd  Pd23  1  0.74973000  0.73543000  0.87872000  1.0
  Pd  Pd24  1  0.00000000  0.25000000  0.12627000  1.0
  Pd  Pd25  1  0.25000000  0.25000000  0.04209000  1.0
  Pd  Pd26  1  0.99674000  0.25837000  0.95993000  1.0
  Pd  Pd27  1  0.25045000  0.19425000  0.87256000  1.0
  Pd  Pd28  1  0.50000000  0.25000000  0.12627000  1.0
  Pd  Pd29  1  0.75000000  0.25000000  0.04209000  1.0
  Pd  Pd30  1  0.50319000  0.25828000  0.95980000  1.0
  Pd  Pd31  1  0.74973000  0.26457000  0.87872000  1.0
  C  C32  1  0.24982000  0.50000000  0.86791000  1.0
