# generated using pymatgen
data_Ti16Pd16C
_symmetry_space_group_name_H-M   Pm
_cell_length_a   9.00957000
_cell_length_b   6.37073000
_cell_length_c   26.75720000
_cell_angle_alpha   90.00000000
_cell_angle_beta   90.00000000
_cell_angle_gamma   90.00000000
_symmetry_Int_Tables_number   6
_chemical_formula_structural   Ti16Pd16C
_chemical_formula_sum   'Ti16 Pd16 C1'
_cell_volume   1535.79740073
_cell_formula_units_Z   1
loop_
 _symmetry_equiv_pos_site_id
 _symmetry_equiv_pos_as_xyz
  1  'x, y, z'
  2  'x, -y, z'
loop_
 _atom_site_type_symbol
 _atom_site_label
 _atom_site_symmetry_multiplicity
 _atom_site_fract_x
 _atom_site_fract_y
 _atom_site_fract_z
 _atom_site_occupancy
  Ti  Ti0  1  0.00000000  0.00000000  0.95791000  1.0
  Ti  Ti1  1  0.00000000  0.50000000  0.95791000  1.0
  Ti  Ti2  1  0.02203000  0.50000000  0.12537000  1.0
  Ti  Ti3  1  0.24991000  0.50000000  0.05006000  1.0
  Ti  Ti4  1  0.24992000  0.00000000  0.04225000  1.0
  Ti  Ti5  1  0.25000000  0.00000000  0.87373000  1.0
  Ti  Ti6  1  0.25000000  0.50000000  0.87373000  1.0
  Ti  Ti7  1  0.47804000  0.50000000  0.12542000  1.0
  Ti  Ti8  1  0.50000000  0.00000000  0.95791000  1.0
  Ti  Ti9  1  0.50000000  0.50000000  0.95791000  1.0
  Ti  Ti10  1  0.51228000  0.00000000  0.12283000  1.0
  Ti  Ti11  1  0.74996000  0.50000000  0.04085000  1.0
  Ti  Ti12  1  0.75000000  0.00000000  0.87373000  1.0
  Ti  Ti13  1  0.75000000  0.50000000  0.87373000  1.0
  Ti  Ti14  1  0.75001000  0.00000000  0.04162000  1.0
  Ti  Ti15  1  0.98803000  0.00000000  0.12262000  1.0
  Pd  Pd16  2  0.00000000  0.25000000  0.87373000  1.0
  Pd  Pd17  2  0.25000000  0.25000000  0.95791000  1.0
  Pd  Pd18  2  0.25045000  0.19425000  0.12744000  1.0
  Pd  Pd19  2  0.50000000  0.25000000  0.87373000  1.0
  Pd  Pd20  2  0.50319000  0.25828000  0.04020000  1.0
  Pd  Pd21  2  0.74973000  0.26457000  0.12128000  1.0
  Pd  Pd22  2  0.75000000  0.25000000  0.95791000  1.0
  Pd  Pd23  2  0.99674000  0.25837000  0.04007000  1.0
  C  C24  1  0.24982000  0.50000000  0.13209000  1.0
