# generated using pymatgen
data_Y8Pb24CO
_symmetry_space_group_name_H-M   P1
_cell_length_a   9.91485000
_cell_length_b   9.91485000
_cell_length_c   27.43610000
_cell_angle_alpha   90.00000000
_cell_angle_beta   90.00000000
_cell_angle_gamma   90.00000000
_symmetry_Int_Tables_number   1
_chemical_formula_structural   Y8Pb24CO
_chemical_formula_sum   'Y8 Pb24 C1 O1'
_cell_volume   2697.08524776
_cell_formula_units_Z   1
loop_
 _symmetry_equiv_pos_site_id
 _symmetry_equiv_pos_as_xyz
  1  'x, y, z'
loop_
 _atom_site_type_symbol
 _atom_site_label
 _atom_site_symmetry_multiplicity
 _atom_site_fract_x
 _atom_site_fract_y
 _atom_site_fract_z
 _atom_site_occupancy
  Y  Y0  1  0.00000000  0.00000000  0.86448000  1.0
  Y  Y1  1  0.00000000  0.50000000  0.86448000  1.0
  Y  Y2  1  0.50000000  0.00000000  0.86448000  1.0
  Y  Y3  1  0.50000000  0.50000000  0.86448000  1.0
  Y  Y4  1  0.50020000  0.49993000  0.03964000  1.0
  Y  Y5  1  0.50088000  0.99993000  0.03926000  1.0
  Y  Y6  1  0.99903000  0.99992000  0.03925000  1.0
  Y  Y7  1  0.99967000  0.49991000  0.03966000  1.0
  Pb  Pb8  1  0.00000000  0.25000000  0.95483000  1.0
  Pb  Pb9  1  0.00000000  0.75000000  0.95483000  1.0
  Pb  Pb10  1  0.24996000  0.25179000  0.04959000  1.0
  Pb  Pb11  1  0.24996000  0.74807000  0.04962000  1.0
  Pb  Pb12  1  0.24999000  0.49998000  0.13597000  1.0
  Pb  Pb13  1  0.25000000  0.00000000  0.95483000  1.0
  Pb  Pb14  1  0.25000000  0.25000000  0.86448000  1.0
  Pb  Pb15  1  0.25000000  0.50000000  0.95483000  1.0
  Pb  Pb16  1  0.25000000  0.75000000  0.86448000  1.0
  Pb  Pb17  1  0.25001000  0.99996000  0.13359000  1.0
  Pb  Pb18  1  0.50000000  0.25000000  0.95483000  1.0
  Pb  Pb19  1  0.50000000  0.75000000  0.95483000  1.0
  Pb  Pb20  1  0.50014000  0.74932000  0.13579000  1.0
  Pb  Pb21  1  0.50031000  0.25077000  0.13579000  1.0
  Pb  Pb22  1  0.74994000  0.50003000  0.13734000  1.0
  Pb  Pb23  1  0.74996000  0.25081000  0.05066000  1.0
  Pb  Pb24  1  0.74997000  0.00009000  0.13621000  1.0
  Pb  Pb25  1  0.74997000  0.74902000  0.05065000  1.0
  Pb  Pb26  1  0.75000000  0.00000000  0.95483000  1.0
  Pb  Pb27  1  0.75000000  0.25000000  0.86448000  1.0
  Pb  Pb28  1  0.75000000  0.50000000  0.95483000  1.0
  Pb  Pb29  1  0.75000000  0.75000000  0.86448000  1.0
  Pb  Pb30  1  0.99978000  0.25080000  0.13579000  1.0
  Pb  Pb31  1  0.99996000  0.74932000  0.13580000  1.0
  C  C32  1  0.25609000  0.01374000  0.28196000  1.0
  O  O33  1  0.24936000  0.99893000  0.32289000  1.0
