# generated using pymatgen
data_LiMgInPt
_symmetry_space_group_name_H-M   Pm
_cell_length_a   6.50521000
_cell_length_b   4.59988000
_cell_length_c   26.89980000
_cell_angle_alpha   90.00000000
_cell_angle_beta   90.00000000
_cell_angle_gamma   90.00000000
_symmetry_Int_Tables_number   6
_chemical_formula_structural   LiMgInPt
_chemical_formula_sum   'Li4 Mg4 In4 Pt4'
_cell_volume   804.92770195
_cell_formula_units_Z   4
loop_
 _symmetry_equiv_pos_site_id
 _symmetry_equiv_pos_as_xyz
  1  'x, y, z'
  2  'x, -y, z'
loop_
 _atom_site_type_symbol
 _atom_site_label
 _atom_site_symmetry_multiplicity
 _atom_site_fract_x
 _atom_site_fract_y
 _atom_site_fract_z
 _atom_site_occupancy
  Li  Li0  1  0.25000000  0.50000000  0.12825000  1.0
  Li  Li1  1  0.26215000  0.50000000  0.95517000  1.0
  Li  Li2  1  0.73538000  0.00000000  0.86798000  1.0
  Li  Li3  1  0.75000000  0.00000000  0.04275000  1.0
  Mg  Mg4  1  -0.00000000  0.50000000  0.04275000  1.0
  Mg  Mg5  1  0.01883500  0.50000000  0.87040000  1.0
  Mg  Mg6  1  0.50000000  0.00000000  0.12825000  1.0
  Mg  Mg7  1  0.50518000  0.00000000  0.95828000  1.0
  In  In8  1  -0.00000000  0.00000000  0.12825000  1.0
  In  In9  1  0.49453000  0.50000000  0.86126000  1.0
  In  In10  1  0.50000000  0.50000000  0.04275000  1.0
  In  In11  1  0.99531000  0.00000000  0.95712000  1.0
  Pt  Pt12  1  0.25000000  0.00000000  0.04275000  1.0
  Pt  Pt13  1  0.26221000  0.00000000  0.87861000  1.0
  Pt  Pt14  1  0.74536000  0.50000000  0.95528000  1.0
  Pt  Pt15  1  0.75000000  0.50000000  0.12825000  1.0
