# generated using pymatgen
data_VOs
_symmetry_space_group_name_H-M   Pmm2
_cell_length_a   4.27649500
_cell_length_b   6.04788000
_cell_length_c   26.41470000
_cell_angle_alpha   90.00000000
_cell_angle_beta   90.00000000
_cell_angle_gamma   90.00000000
_symmetry_Int_Tables_number   25
_chemical_formula_structural   VOs
_chemical_formula_sum   'V8 Os8'
_cell_volume   683.18263134
_cell_formula_units_Z   8
loop_
 _symmetry_equiv_pos_site_id
 _symmetry_equiv_pos_as_xyz
  1  'x, y, z'
  2  '-x, -y, z'
  3  '-x, y, z'
  4  'x, -y, z'
loop_
 _atom_site_type_symbol
 _atom_site_label
 _atom_site_symmetry_multiplicity
 _atom_site_fract_x
 _atom_site_fract_y
 _atom_site_fract_z
 _atom_site_occupancy
  V  V0  1  0.00000000  0.00000000  0.12142000  1.0
  V  V1  1  0.00000000  0.00000000  0.95793000  1.0
  V  V2  1  0.00000000  0.50000000  0.12142000  1.0
  V  V3  1  0.00000000  0.50000000  0.95793000  1.0
  V  V4  1  0.50000000  0.00000000  0.04047000  1.0
  V  V5  1  0.50000000  0.00000000  0.87395000  1.0
  V  V6  1  0.50000000  0.50000000  0.04047000  1.0
  V  V7  1  0.50000000  0.50000000  0.87402000  1.0
  Os  Os8  2  0.00000000  0.24997000  0.88326000  1.0
  Os  Os9  2  0.00000000  0.25000000  0.04047000  1.0
  Os  Os10  2  0.50000000  0.24997000  0.95735000  1.0
  Os  Os11  2  0.50000000  0.25000000  0.12142000  1.0
