# generated using pymatgen
data_Ti8Ga8Fe16C
_symmetry_space_group_name_H-M   Pmm2
_cell_length_a   5.88011000
_cell_length_b   8.31574000
_cell_length_c   26.23680000
_cell_angle_alpha   90.00000000
_cell_angle_beta   90.00000000
_cell_angle_gamma   90.00000000
_symmetry_Int_Tables_number   25
_chemical_formula_structural   Ti8Ga8Fe16C
_chemical_formula_sum   'Ti8 Ga8 Fe16 C1'
_cell_volume   1282.91303415
_cell_formula_units_Z   1
loop_
 _symmetry_equiv_pos_site_id
 _symmetry_equiv_pos_as_xyz
  1  'x, y, z'
  2  '-x, -y, z'
  3  '-x, y, z'
  4  'x, -y, z'
loop_
 _atom_site_type_symbol
 _atom_site_label
 _atom_site_symmetry_multiplicity
 _atom_site_fract_x
 _atom_site_fract_y
 _atom_site_fract_z
 _atom_site_occupancy
  Ti  Ti0  2  0.50000000  0.24705000  0.11569000  1.0
  Ti  Ti1  2  0.50000000  0.25000000  0.96038000  1.0
  Ti  Ti2  1  0.00000000  0.00000000  0.03714000  1.0
  Ti  Ti3  1  0.00000000  0.00000000  0.88114000  1.0
  Ti  Ti4  1  0.00000000  0.50000000  0.03685000  1.0
  Ti  Ti5  1  0.00000000  0.50000000  0.88114000  1.0
  Ga  Ga6  2  0.00000000  0.25000000  0.96038000  1.0
  Ga  Ga7  2  0.00000000  0.25159000  0.12308000  1.0
  Ga  Ga8  1  0.50000000  0.00000000  0.03707000  1.0
  Ga  Ga9  1  0.50000000  0.00000000  0.88114000  1.0
  Ga  Ga10  1  0.50000000  0.50000000  0.03848000  1.0
  Ga  Ga11  1  0.50000000  0.50000000  0.88114000  1.0
  Fe  Fe12  4  0.25000000  0.25000000  0.88114000  1.0
  Fe  Fe13  4  0.25146000  0.25051000  0.04067000  1.0
  Fe  Fe14  2  0.23537000  0.50000000  0.11541000  1.0
  Fe  Fe15  2  0.24570000  0.00000000  0.11579000  1.0
  Fe  Fe16  2  0.25000000  0.00000000  0.96038000  1.0
  Fe  Fe17  2  0.25000000  0.50000000  0.96038000  1.0
  C  C18  1  0.00000000  0.00000000  0.15428000  1.0
