# generated using pymatgen
data_K12Bi4CO
_symmetry_space_group_name_H-M   'P 1'
_cell_length_a   8.83903000
_cell_length_b   8.83903000
_cell_length_c   26.62930000
_cell_angle_alpha   90.00000000
_cell_angle_beta   90.00000000
_cell_angle_gamma   90.00000000
_symmetry_Int_Tables_number   1
_chemical_formula_structural   K12Bi4CO
_chemical_formula_sum   'K12 Bi4 C1 O1'
_cell_volume   2080.50596929
_cell_formula_units_Z   1
loop_
 _symmetry_equiv_pos_site_id
 _symmetry_equiv_pos_as_xyz
  1  'x, y, z'
loop_
 _atom_site_type_symbol
 _atom_site_label
 _atom_site_symmetry_multiplicity
 _atom_site_fract_x
 _atom_site_fract_y
 _atom_site_fract_z
 _atom_site_occupancy
  K  K0  1  0.25001500  0.74998500  0.04149000  1
  K  K1  1  0.75002000  0.24998000  0.86090000  1
  K  K2  1  0.25000000  0.24997000  0.04149000  1
  K  K3  1  0.75000000  0.74997000  0.86684000  1
  K  K4  1  0.75001500  0.24998500  0.04149000  1
  K  K5  1  0.25005000  0.74995000  0.87839000  1
  K  K6  1  0.75003000  0.75000000  0.04149000  1
  K  K7  1  0.25003000  0.25000000  0.86684000  1
  K  K8  1  0.98452000  0.01548000  0.96675000  1
  K  K9  1  0.00000000  0.49997000  0.12447000  1
  K  K10  1  0.50003000  1.00000000  0.12447000  1
  K  K11  1  0.51555500  0.48444500  0.96673000  1
  Bi  Bi12  1  0.00001500  0.99998500  0.12447000  1
  Bi  Bi13  1  0.50001500  0.49998500  0.12447000  1
  Bi  Bi14  1  0.99161000  0.49153000  0.94698000  1
  Bi  Bi15  1  0.50847000  0.00839000  0.94698000  1
  C  C16  1  0.24946000  0.75054000  0.76649000  1
  O  O17  1  0.24986000  0.75014000  0.72334000  1
