data_image0
_chemical_formula_structural       Li8Y8Ag8Pb8CO
_chemical_formula_sum              "Li8 Y8 Ag8 Pb8 C1 O1"
_cell_length_a       7.20907
_cell_length_b       10.1952
_cell_length_c       27.6464
_cell_angle_alpha    90
_cell_angle_beta     90
_cell_angle_gamma    90

_space_group_name_H-M_alt    "P 1"
_space_group_IT_number       1

loop_
  _space_group_symop_operation_xyz
  'x, y, z'

loop_
  _atom_site_type_symbol
  _atom_site_label
  _atom_site_symmetry_multiplicity
  _atom_site_fract_x
  _atom_site_fract_y
  _atom_site_fract_z
  _atom_site_occupancy
  Li  Li1       1.0  0.25000  0.00000  0.95390  1.0000
  Li  Li2       1.0  0.25000  0.50000  0.95390  1.0000
  Li  Li3       1.0  0.75000  0.25000  0.86171  1.0000
  Li  Li4       1.0  0.75000  0.75000  0.86171  1.0000
  Li  Li5       1.0  0.24390  0.49199  0.13513  1.0000
  Li  Li6       1.0  0.24344  0.00602  0.13485  1.0000
  Li  Li7       1.0  0.75138  0.75031  0.04610  1.0000
  Li  Li8       1.0  0.75705  0.25046  0.04388  1.0000
  Y   Y1        1.0  0.75000  0.00000  0.95390  1.0000
  Y   Y2        1.0  0.75000  0.50000  0.95390  1.0000
  Y   Y3        1.0  0.25000  0.25000  0.86171  1.0000
  Y   Y4        1.0  0.25000  0.75000  0.86171  1.0000
  Y   Y5        1.0  0.77094  0.51685  0.13722  1.0000
  Y   Y6        1.0  0.77081  0.98254  0.13735  1.0000
  Y   Y7        1.0  0.23822  0.75001  0.05002  1.0000
  Y   Y8        1.0  0.24712  0.24983  0.04814  1.0000
  Ag  Ag1       1.0  0.00000  0.00000  0.86171  1.0000
  Ag  Ag2       1.0  0.00000  0.50000  0.86171  1.0000
  Ag  Ag3       1.0  0.50000  0.75000  0.95390  1.0000
  Ag  Ag4       1.0  0.50000  0.25000  0.95390  1.0000
  Ag  Ag5       1.0  0.99852  0.49686  0.04537  1.0000
  Ag  Ag6       1.0  0.99806  0.00327  0.04545  1.0000
  Ag  Ag7       1.0  0.54339  0.24971  0.12835  1.0000
  Ag  Ag8       1.0  0.48899  0.74965  0.13679  1.0000
  Pb  Pb1       1.0  0.00000  0.25000  0.95390  1.0000
  Pb  Pb2       1.0  0.00000  0.75000  0.95390  1.0000
  Pb  Pb3       1.0  0.50000  0.50000  0.86171  1.0000
  Pb  Pb4       1.0  0.50000  0.00000  0.86171  1.0000
  Pb  Pb5       1.0  0.04662  0.74956  0.15625  1.0000
  Pb  Pb6       1.0  0.99460  0.24955  0.14425  1.0000
  Pb  Pb7       1.0  0.50198  0.99937  0.04820  1.0000
  Pb  Pb8       1.0  0.50160  0.50057  0.04816  1.0000
  C   C1        1.0  0.11533  0.25198  0.28331  1.0000
  O   O1        1.0  0.97538  0.25021  0.30223  1.0000
