# generated using pymatgen
data_Li8Y8Ag8Pb8CO
_symmetry_space_group_name_H-M   'P 1'
_cell_length_a   7.20907000
_cell_length_b   10.19520000
_cell_length_c   27.64640000
_cell_angle_alpha   90.00000000
_cell_angle_beta   90.00000000
_cell_angle_gamma   90.00000000
_symmetry_Int_Tables_number   1
_chemical_formula_structural   Li8Y8Ag8Pb8CO
_chemical_formula_sum   'Li8 Y8 Ag8 Pb8 C1 O1'
_cell_volume   2031.95263185
_cell_formula_units_Z   1
loop_
 _symmetry_equiv_pos_site_id
 _symmetry_equiv_pos_as_xyz
  1  'x, y, z'
loop_
 _atom_site_type_symbol
 _atom_site_label
 _atom_site_symmetry_multiplicity
 _atom_site_fract_x
 _atom_site_fract_y
 _atom_site_fract_z
 _atom_site_occupancy
  Li  Li0  1  0.25000000  0.00000000  0.95390000  1.0
  Li  Li1  1  0.25000000  0.50000000  0.95390000  1.0
  Li  Li2  1  0.75000000  0.25000000  0.86171000  1.0
  Li  Li3  1  0.75000000  0.75000000  0.86171000  1.0
  Li  Li4  1  0.24390000  0.49199000  0.13513000  1.0
  Li  Li5  1  0.24344000  0.00602000  0.13485000  1.0
  Li  Li6  1  0.75138000  0.75031000  0.04610000  1.0
  Li  Li7  1  0.75705000  0.25046000  0.04388000  1.0
  Y  Y8  1  0.75000000  0.00000000  0.95390000  1.0
  Y  Y9  1  0.75000000  0.50000000  0.95390000  1.0
  Y  Y10  1  0.25000000  0.25000000  0.86171000  1.0
  Y  Y11  1  0.25000000  0.75000000  0.86171000  1.0
  Y  Y12  1  0.77094000  0.51685000  0.13722000  1.0
  Y  Y13  1  0.77081000  0.98254000  0.13735000  1.0
  Y  Y14  1  0.23822000  0.75001000  0.05002000  1.0
  Y  Y15  1  0.24712000  0.24983000  0.04814000  1.0
  Ag  Ag16  1  0.00000000  0.00000000  0.86171000  1.0
  Ag  Ag17  1  0.00000000  0.50000000  0.86171000  1.0
  Ag  Ag18  1  0.50000000  0.75000000  0.95390000  1.0
  Ag  Ag19  1  0.50000000  0.25000000  0.95390000  1.0
  Ag  Ag20  1  0.99852000  0.49686000  0.04537000  1.0
  Ag  Ag21  1  0.99806000  0.00327000  0.04545000  1.0
  Ag  Ag22  1  0.54339000  0.24971000  0.12835000  1.0
  Ag  Ag23  1  0.48899000  0.74965000  0.13679000  1.0
  Pb  Pb24  1  0.00000000  0.25000000  0.95390000  1.0
  Pb  Pb25  1  0.00000000  0.75000000  0.95390000  1.0
  Pb  Pb26  1  0.50000000  0.50000000  0.86171000  1.0
  Pb  Pb27  1  0.50000000  0.00000000  0.86171000  1.0
  Pb  Pb28  1  0.04662000  0.74956000  0.15625000  1.0
  Pb  Pb29  1  0.99460000  0.24955000  0.14425000  1.0
  Pb  Pb30  1  0.50198000  0.99937000  0.04820000  1.0
  Pb  Pb31  1  0.50160000  0.50057000  0.04816000  1.0
  C  C32  1  0.11533000  0.25198000  0.28331000  1.0
  O  O33  1  0.97538000  0.25021000  0.30223000  1.0
