# generated using pymatgen
data_Li8Bi4Au4CO
_symmetry_space_group_name_H-M   'P 1'
_cell_length_a   6.87958000
_cell_length_b   6.87958000
_cell_length_c   25.15970000
_cell_angle_alpha   90.00000000
_cell_angle_beta   90.00000000
_cell_angle_gamma   90.00000000
_symmetry_Int_Tables_number   1
_chemical_formula_structural   Li8Bi4Au4CO
_chemical_formula_sum   'Li8 Bi4 Au4 C1 O1'
_cell_volume   1190.77390518
_cell_formula_units_Z   1
loop_
 _symmetry_equiv_pos_site_id
 _symmetry_equiv_pos_as_xyz
  1  'x, y, z'
loop_
 _atom_site_type_symbol
 _atom_site_label
 _atom_site_symmetry_multiplicity
 _atom_site_fract_x
 _atom_site_fract_y
 _atom_site_fract_z
 _atom_site_occupancy
  Li  Li0  1  0.00000000  0.00000000  0.96582000  1.0
  Li  Li1  1  0.50001000  0.00001000  0.10238000  1.0
  Li  Li2  1  0.00000000  0.50000000  0.10328000  1.0
  Li  Li3  1  0.50000000  0.50000000  0.96582000  1.0
  Li  Li4  1  0.25000000  0.25000000  0.89746000  1.0
  Li  Li5  1  0.24937000  0.74956000  0.03945000  1.0
  Li  Li6  1  0.75000000  0.75000000  0.89746000  1.0
  Li  Li7  1  0.75062000  0.25043000  0.03945000  1.0
  Bi  Bi8  1  0.99991000  0.99991000  0.10449000  1.0
  Bi  Bi9  1  0.50005000  0.50005000  0.10443000  1.0
  Bi  Bi10  1  0.50000000  0.00000000  0.96582000  1.0
  Bi  Bi11  1  0.00000000  0.50000000  0.96582000  1.0
  Au  Au12  1  0.25100000  0.24884000  0.04004000  1.0
  Au  Au13  1  0.25000000  0.75000000  0.89746000  1.0
  Au  Au14  1  0.74902000  0.75119000  0.04003000  1.0
  Au  Au15  1  0.75000000  0.25000000  0.89746000  1.0
  C  C16  1  0.00000000  0.50000000  0.18717000  1.0
  O  O17  1  0.00002000  0.50002000  0.23244000  1.0
