# generated using pymatgen
data_Li8Co16Ge8C
_symmetry_space_group_name_H-M   P1
_cell_length_a   5.64259000
_cell_length_b   7.97982000
_cell_length_c   25.98490000
_cell_angle_alpha   90.00000000
_cell_angle_beta   90.00000000
_cell_angle_gamma   90.00000000
_symmetry_Int_Tables_number   1
_chemical_formula_structural   Li8Co16Ge8C
_chemical_formula_sum   'Li8 Co16 Ge8 C1'
_cell_volume   1170.01826041
_cell_formula_units_Z   1
loop_
 _symmetry_equiv_pos_site_id
 _symmetry_equiv_pos_as_xyz
  1  'x, y, z'
loop_
 _atom_site_type_symbol
 _atom_site_label
 _atom_site_symmetry_multiplicity
 _atom_site_fract_x
 _atom_site_fract_y
 _atom_site_fract_z
 _atom_site_occupancy
  Li  Li0  1  0.00000000  0.00000000  0.88484000  1.0
  Li  Li1  1  0.00000000  0.50000000  0.88484000  1.0
  Li  Li2  1  0.00317000  0.00163000  0.03855000  1.0
  Li  Li3  1  0.00320000  0.49829000  0.03857000  1.0
  Li  Li4  1  0.49926000  0.74998000  0.15810000  1.0
  Li  Li5  1  0.50000000  0.25000000  0.96161000  1.0
  Li  Li6  1  0.50000000  0.75000000  0.96161000  1.0
  Li  Li7  1  0.59764000  0.25000000  0.17421000  1.0
  Co  Co8  1  0.24988000  0.25002000  0.04121000  1.0
  Co  Co9  1  0.25000000  0.00000000  0.96161000  1.0
  Co  Co10  1  0.25000000  0.25000000  0.88484000  1.0
  Co  Co11  1  0.25000000  0.50000000  0.96161000  1.0
  Co  Co12  1  0.25000000  0.75000000  0.88484000  1.0
  Co  Co13  1  0.26507000  0.74988000  0.04567000  1.0
  Co  Co14  1  0.28050000  0.46928000  0.11695000  1.0
  Co  Co15  1  0.28081000  0.03066000  0.11698000  1.0
  Co  Co16  1  0.74432000  0.25002000  0.03613000  1.0
  Co  Co17  1  0.75000000  0.00000000  0.96161000  1.0
  Co  Co18  1  0.75000000  0.25000000  0.88484000  1.0
  Co  Co19  1  0.75000000  0.50000000  0.96161000  1.0
  Co  Co20  1  0.75000000  0.75000000  0.88484000  1.0
  Co  Co21  1  0.76187000  0.98423000  0.11173000  1.0
  Co  Co22  1  0.76224000  0.51598000  0.11168000  1.0
  Co  Co23  1  0.76531000  0.74996000  0.04651000  1.0
  Ge  Ge24  1  0.00000000  0.25000000  0.96161000  1.0
  Ge  Ge25  1  0.00000000  0.75000000  0.96161000  1.0
  Ge  Ge26  1  0.04041000  0.75020000  0.12535000  1.0
  Ge  Ge27  1  0.49857000  0.49865000  0.03653000  1.0
  Ge  Ge28  1  0.49858000  0.00128000  0.03654000  1.0
  Ge  Ge29  1  0.50000000  0.00000000  0.88484000  1.0
  Ge  Ge30  1  0.50000000  0.50000000  0.88484000  1.0
  Ge  Ge31  1  0.94575000  0.24995000  0.11415000  1.0
  C  C32  1  0.29857000  0.25001000  0.12979000  1.0
