# generated using pymatgen
data_Mg8Ni16Sn8C
_symmetry_space_group_name_H-M   'P 1'
_cell_length_a   8.80700000
_cell_length_b   6.22749000
_cell_length_c   26.60530000
_cell_angle_alpha   90.00000000
_cell_angle_beta   90.00000000
_cell_angle_gamma   90.00000000
_symmetry_Int_Tables_number   1
_chemical_formula_structural   Mg8Ni16Sn8C
_chemical_formula_sum   'Mg8 Ni16 Sn8 C1'
_cell_volume   1459.18109901
_cell_formula_units_Z   1
loop_
 _symmetry_equiv_pos_site_id
 _symmetry_equiv_pos_as_xyz
  1  'x, y, z'
loop_
 _atom_site_type_symbol
 _atom_site_label
 _atom_site_symmetry_multiplicity
 _atom_site_fract_x
 _atom_site_fract_y
 _atom_site_fract_z
 _atom_site_occupancy
  Mg  Mg0  1  0.74998000  0.00000000  0.12413000  1.0
  Mg  Mg1  1  0.00000000  0.50000000  0.04138000  1.0
  Mg  Mg2  1  0.50000000  0.50000000  0.04138000  1.0
  Mg  Mg3  1  0.25002000  0.00000000  0.12413000  1.0
  Mg  Mg4  1  0.25294000  0.00588000  0.95870000  1.0
  Mg  Mg5  1  0.50000000  0.49128000  0.86888000  1.0
  Mg  Mg6  1  0.00000000  0.53815000  0.87634000  1.0
  Mg  Mg7  1  0.74706000  0.00588000  0.95870000  1.0
  Ni  Ni8  1  0.74998000  0.25000000  0.04138000  1.0
  Ni  Ni9  1  0.24998000  0.75000000  0.04138000  1.0
  Ni  Ni10  1  0.75002000  0.75000000  0.04138000  1.0
  Ni  Ni11  1  0.25002000  0.25000000  0.04138000  1.0
  Ni  Ni12  1  0.50000000  0.75000000  0.12413000  1.0
  Ni  Ni13  1  0.00000000  0.25000000  0.12413000  1.0
  Ni  Ni14  1  0.50000000  0.25000000  0.12413000  1.0
  Ni  Ni15  1  0.00000000  0.75000000  0.12413000  1.0
  Ni  Ni16  1  0.20573000  0.24755000  0.87312000  1.0
  Ni  Ni17  1  0.73297000  0.75954000  0.88322000  1.0
  Ni  Ni18  1  0.26703000  0.75954000  0.88322000  1.0
  Ni  Ni19  1  0.79427000  0.24755000  0.87312000  1.0
  Ni  Ni20  1  0.00000000  0.74691000  0.96413000  1.0
  Ni  Ni21  1  0.50000000  0.25090000  0.95677000  1.0
  Ni  Ni22  1  0.00000000  0.24855000  0.95770000  1.0
  Ni  Ni23  1  0.50000000  0.74957000  0.95355000  1.0
  Sn  Sn24  1  0.50000000  0.00000000  0.04138000  1.0
  Sn  Sn25  1  0.74998000  0.50000000  0.12413000  1.0
  Sn  Sn26  1  0.00000000  0.00000000  0.04138000  1.0
  Sn  Sn27  1  0.25002000  0.50000000  0.12413000  1.0
  Sn  Sn28  1  0.00000000  0.94603000  0.87682000  1.0
  Sn  Sn29  1  0.25117000  0.49494000  0.95774000  1.0
  Sn  Sn30  1  0.50000000  0.01409000  0.86834000  1.0
  Sn  Sn31  1  0.74883000  0.49494000  0.95774000  1.0
  C  C32  1  0.00000000  0.24846000  0.84463000  1.0
