# generated using pymatgen
data_Mg8Ni16Sn8C
_symmetry_space_group_name_H-M   Pm
_cell_length_a   6.22749000
_cell_length_b   8.80700000
_cell_length_c   26.60530000
_cell_angle_alpha   90.00000000
_cell_angle_beta   90.00000000
_cell_angle_gamma   90.00000000
_symmetry_Int_Tables_number   6
_chemical_formula_structural   Mg8Ni16Sn8C
_chemical_formula_sum   'Mg8 Ni16 Sn8 C1'
_cell_volume   1459.18109901
_cell_formula_units_Z   1
loop_
 _symmetry_equiv_pos_site_id
 _symmetry_equiv_pos_as_xyz
  1  'x, y, z'
  2  'x, -y, z'
loop_
 _atom_site_type_symbol
 _atom_site_label
 _atom_site_symmetry_multiplicity
 _atom_site_fract_x
 _atom_site_fract_y
 _atom_site_fract_z
 _atom_site_occupancy
  Mg  Mg0  2  0.00000000  0.25002000  0.87587000  1.0
  Mg  Mg1  2  0.00588000  0.25294000  0.04130000  1.0
  Mg  Mg2  1  0.49128000  0.50000000  0.13112000  1.0
  Mg  Mg3  1  0.50000000  0.00000000  0.95862000  1.0
  Mg  Mg4  1  0.50000000  0.50000000  0.95862000  1.0
  Mg  Mg5  1  0.53815000  0.00000000  0.12366000  1.0
  Ni  Ni6  2  0.24755000  0.20573000  0.12688000  1.0
  Ni  Ni7  2  0.25000000  0.25002000  0.95862000  1.0
  Ni  Ni8  2  0.75000000  0.24998000  0.95862000  1.0
  Ni  Ni9  2  0.75954000  0.26703000  0.11678000  1.0
  Ni  Ni10  1  0.24855000  0.00000000  0.04230000  1.0
  Ni  Ni11  1  0.25000000  0.00000000  0.87587000  1.0
  Ni  Ni12  1  0.25000000  0.50000000  0.87587000  1.0
  Ni  Ni13  1  0.25090000  0.50000000  0.04323000  1.0
  Ni  Ni14  1  0.74691000  0.00000000  0.03587000  1.0
  Ni  Ni15  1  0.74957000  0.50000000  0.04645000  1.0
  Ni  Ni16  1  0.75000000  0.00000000  0.87587000  1.0
  Ni  Ni17  1  0.75000000  0.50000000  0.87587000  1.0
  Sn  Sn18  2  0.49494000  0.25117000  0.04226000  1.0
  Sn  Sn19  2  0.50000000  0.25002000  0.87587000  1.0
  Sn  Sn20  1  0.00000000  0.00000000  0.95862000  1.0
  Sn  Sn21  1  0.00000000  0.50000000  0.95862000  1.0
  Sn  Sn22  1  0.01409000  0.50000000  0.13166000  1.0
  Sn  Sn23  1  0.94603000  0.00000000  0.12318000  1.0
  C  C24  1  0.24846000  0.00000000  0.15537000  1.0
