# generated using pymatgen
data_Y8Al8In8Pd8CO
_symmetry_space_group_name_H-M   Pmm2
_cell_length_a   8.86460000
_cell_length_b   9.21652000
_cell_length_c   26.12130000
_cell_angle_alpha   90.00000000
_cell_angle_beta   90.00000000
_cell_angle_gamma   90.00000000
_symmetry_Int_Tables_number   25
_chemical_formula_structural   Y8Al8In8Pd8CO
_chemical_formula_sum   'Y8 Al8 In8 Pd8 C1 O1'
_cell_volume   2134.13014557
_cell_formula_units_Z   1
loop_
 _symmetry_equiv_pos_site_id
 _symmetry_equiv_pos_as_xyz
  1  'x, y, z'
  2  '-x, -y, z'
  3  '-x, y, z'
  4  'x, -y, z'
loop_
 _atom_site_type_symbol
 _atom_site_label
 _atom_site_symmetry_multiplicity
 _atom_site_fract_x
 _atom_site_fract_y
 _atom_site_fract_z
 _atom_site_occupancy
  Y  Y0  1  0.00000000  0.00000000  0.11717000  1.0
  Y  Y1  1  0.00000000  0.00000000  0.96094000  1.0
  Y  Y2  1  0.00000000  0.50000000  0.11717000  1.0
  Y  Y3  1  0.00000000  0.50000000  0.96094000  1.0
  Y  Y4  1  0.50000000  0.00000000  0.11717000  1.0
  Y  Y5  1  0.50000000  0.00000000  0.96094000  1.0
  Y  Y6  1  0.50000000  0.50000000  0.11717000  1.0
  Y  Y7  1  0.50000000  0.50000000  0.96094000  1.0
  Al  Al8  2  0.00000000  0.25000000  0.03906000  1.0
  Al  Al9  2  0.00000000  0.25000000  0.88283000  1.0
  Al  Al10  2  0.50000000  0.25000000  0.03906000  1.0
  Al  Al11  2  0.50000000  0.25000000  0.88283000  1.0
  In  In12  4  0.25000000  0.25000000  0.11717000  1.0
  In  In13  4  0.25000000  0.25000000  0.96094000  1.0
  Pd  Pd14  2  0.25000000  0.00000000  0.03906000  1.0
  Pd  Pd15  2  0.25000000  0.00000000  0.88283000  1.0
  Pd  Pd16  2  0.25000000  0.50000000  0.03906000  1.0
  Pd  Pd17  2  0.25000000  0.50000000  0.88283000  1.0
  C  C18  1  0.00000000  0.00000000  0.18991000  1.0
  O  O19  1  0.00000000  0.00000000  0.23393000  1.0
