# generated using pymatgen
data_FeNi
_symmetry_space_group_name_H-M   Pmma
_cell_length_a   3.59002500
_cell_length_b   3.59517000
_cell_length_c   25.38500000
_cell_angle_alpha   90.00000000
_cell_angle_beta   90.00000000
_cell_angle_gamma   90.00000000
_symmetry_Int_Tables_number   51
_chemical_formula_structural   FeNi
_chemical_formula_sum   'Fe4 Ni4'
_cell_volume   327.63785330
_cell_formula_units_Z   4
loop_
 _symmetry_equiv_pos_site_id
 _symmetry_equiv_pos_as_xyz
  1  'x, y, z'
  2  '-x, -y, -z'
  3  '-x+1/2, -y, z'
  4  'x+1/2, y, -z'
  5  'x+1/2, -y, -z'
  6  '-x+1/2, y, z'
  7  '-x, y, -z'
  8  'x, -y, z'
loop_
 _atom_site_type_symbol
 _atom_site_label
 _atom_site_symmetry_multiplicity
 _atom_site_fract_x
 _atom_site_fract_y
 _atom_site_fract_z
 _atom_site_occupancy
  Fe  Fe0  2  0.25000000  0.00000000  0.10607000  1.0
  Fe  Fe1  2  0.25000000  0.00000000  0.96464000  1.0
  Ni  Ni2  2  0.25000000  0.50000000  0.03536000  1.0
  Ni  Ni3  2  0.25000000  0.50000000  0.89393000  1.0
