data_image0
_chemical_formula_structural       Ti4Pt12CO
_chemical_formula_sum              "Ti4 Pt12 C1 O1"
_cell_length_a       7.94591
_cell_length_b       5.61861
_cell_length_c       24.214
_cell_angle_alpha    90
_cell_angle_beta     90
_cell_angle_gamma    90

_space_group_name_H-M_alt    "P 1"
_space_group_IT_number       1

loop_
  _space_group_symop_operation_xyz
  'x, y, z'

loop_
  _atom_site_type_symbol
  _atom_site_label
  _atom_site_symmetry_multiplicity
  _atom_site_fract_x
  _atom_site_fract_y
  _atom_site_fract_z
  _atom_site_occupancy
  Ti  Ti1       1.0  0.00000  0.00000  0.91298  1.0000
  Ti  Ti2       1.0  0.99411  0.50288  0.03400  1.0000
  Ti  Ti3       1.0  0.50000  0.00000  0.91298  1.0000
  Ti  Ti4       1.0  0.50589  0.50288  0.03400  1.0000
  Pt  Pt1       1.0  0.00000  0.50000  0.91298  1.0000
  Pt  Pt2       1.0  0.25000  0.75000  0.97099  1.0000
  Pt  Pt3       1.0  0.25000  0.25000  0.97099  1.0000
  Pt  Pt4       1.0  0.99986  0.00094  0.02360  1.0000
  Pt  Pt5       1.0  0.25000  0.23281  0.08710  1.0000
  Pt  Pt6       1.0  0.25001  0.72311  0.08337  1.0000
  Pt  Pt7       1.0  0.50000  0.50000  0.91298  1.0000
  Pt  Pt8       1.0  0.75000  0.75000  0.97099  1.0000
  Pt  Pt9       1.0  0.75000  0.25000  0.97099  1.0000
  Pt  Pt10      1.0  0.50014  0.00095  0.02360  1.0000
  Pt  Pt11      1.0  0.75000  0.26452  0.08522  1.0000
  Pt  Pt12      1.0  0.75000  0.74477  0.08510  1.0000
  C   C1        1.0  0.25000  0.24981  0.16453  1.0000
  O   O1        1.0  0.25000  0.25918  0.21209  1.0000
