# generated using pymatgen
data_Ti4Pt12CO
_symmetry_space_group_name_H-M   Pm
_cell_length_a   5.61861000
_cell_length_b   7.94591000
_cell_length_c   24.21400000
_cell_angle_alpha   90.00000000
_cell_angle_beta   90.00000000
_cell_angle_gamma   90.00000000
_symmetry_Int_Tables_number   6
_chemical_formula_structural   Ti4Pt12CO
_chemical_formula_sum   'Ti4 Pt12 C1 O1'
_cell_volume   1081.03328869
_cell_formula_units_Z   1
loop_
 _symmetry_equiv_pos_site_id
 _symmetry_equiv_pos_as_xyz
  1  'x, y, z'
  2  'x, -y, z'
loop_
 _atom_site_type_symbol
 _atom_site_label
 _atom_site_symmetry_multiplicity
 _atom_site_fract_x
 _atom_site_fract_y
 _atom_site_fract_z
 _atom_site_occupancy
  Ti  Ti0  2  0.00000000  0.25000000  0.08702000  1.0
  Ti  Ti1  2  0.49712000  0.24411000  0.96600000  1.0
  Pt  Pt2  2  0.50000000  0.25000000  0.08702000  1.0
  Pt  Pt3  2  0.99906000  0.24986000  0.97640000  1.0
  Pt  Pt4  1  0.25000000  0.00000000  0.02901000  1.0
  Pt  Pt5  1  0.25000000  0.50000000  0.02901000  1.0
  Pt  Pt6  1  0.25523000  0.00000000  0.91490000  1.0
  Pt  Pt7  1  0.27689000  0.50000000  0.91663000  1.0
  Pt  Pt8  1  0.73548000  0.00000000  0.91478000  1.0
  Pt  Pt9  1  0.75000000  0.00000000  0.02901000  1.0
  Pt  Pt10  1  0.75000000  0.50000000  0.02901000  1.0
  Pt  Pt11  1  0.76719000  0.50000000  0.91290000  1.0
  C  C12  1  0.75019000  0.50000000  0.83547000  1.0
  O  O13  1  0.74082000  0.50000000  0.78791000  1.0
