# generated using pymatgen
data_Li4Ni8Ge4C
_symmetry_space_group_name_H-M   'P 1'
_cell_length_a   5.73354000
_cell_length_b   5.73354000
_cell_length_c   24.30020000
_cell_angle_alpha   90.00000000
_cell_angle_beta   90.00000000
_cell_angle_gamma   90.00000000
_symmetry_Int_Tables_number   1
_chemical_formula_structural   Li4Ni8Ge4C
_chemical_formula_sum   'Li4 Ni8 Ge4 C1'
_cell_volume   798.83216133
_cell_formula_units_Z   1
loop_
 _symmetry_equiv_pos_site_id
 _symmetry_equiv_pos_as_xyz
  1  'x, y, z'
loop_
 _atom_site_type_symbol
 _atom_site_label
 _atom_site_symmetry_multiplicity
 _atom_site_fract_x
 _atom_site_fract_y
 _atom_site_fract_z
 _atom_site_occupancy
  Li  Li0  1  0.75985000  0.24015000  0.10693000  1
  Li  Li1  1  0.24015000  0.75985000  0.10693000  1
  Li  Li2  1  0.75000000  0.75000000  0.97051000  1
  Li  Li3  1  0.25000000  0.25000000  0.97051000  1
  Ni  Ni4  1  0.50000000  0.50000000  0.02485000  1
  Ni  Ni5  1  0.00000000  0.00000000  0.91152000  1
  Ni  Ni6  1  0.50000000  0.00000000  0.03164000  1
  Ni  Ni7  1  1.00000000  0.50000000  0.91152000  1
  Ni  Ni8  1  0.00000000  0.00000000  0.03467000  1
  Ni  Ni9  1  0.50000000  0.50000000  0.91152000  1
  Ni  Ni10  1  1.00000000  0.50000000  0.03164000  1
  Ni  Ni11  1  0.50000000  0.00000000  0.91152000  1
  Ge  Ge12  1  0.75000000  0.25000000  0.97051000  1
  Ge  Ge13  1  0.74004000  0.74004000  0.09115000  1
  Ge  Ge14  1  0.25996000  0.25996000  0.09115000  1
  Ge  Ge15  1  0.25000000  0.75000000  0.97051000  1
  C  C16  1  0.50000000  0.50000000  0.10479000  1
