# generated using pymatgen
data_Li16Ag8Sn8C
_symmetry_space_group_name_H-M   Pm
_cell_length_a   6.59455000
_cell_length_b   9.32610000
_cell_length_c   26.99460000
_cell_angle_alpha   90.00000000
_cell_angle_beta   90.00000000
_cell_angle_gamma   90.00000000
_symmetry_Int_Tables_number   6
_chemical_formula_structural   Li16Ag8Sn8C
_chemical_formula_sum   'Li16 Ag8 Sn8 C1'
_cell_volume   1660.20657665
_cell_formula_units_Z   1
loop_
 _symmetry_equiv_pos_site_id
 _symmetry_equiv_pos_as_xyz
  1  'x, y, z'
  2  'x, -y, z'
loop_
 _atom_site_type_symbol
 _atom_site_label
 _atom_site_symmetry_multiplicity
 _atom_site_fract_x
 _atom_site_fract_y
 _atom_site_fract_z
 _atom_site_occupancy
  Li  Li0  2  0.22826000  0.22666000  0.13460000  1.0
  Li  Li1  2  0.25000000  0.25000000  0.95681000  1.0
  Li  Li2  2  0.74595000  0.27192000  0.13068000  1.0
  Li  Li3  2  0.75000000  0.25000000  0.95681000  1.0
  Li  Li4  1  0.22046000  0.00000000  0.05502000  1.0
  Li  Li5  1  0.25000000  0.00000000  0.87044000  1.0
  Li  Li6  1  0.25000000  0.50000000  0.87044000  1.0
  Li  Li7  1  0.26288000  0.50000000  0.03877000  1.0
  Li  Li8  1  0.74060000  0.50000000  0.04451000  1.0
  Li  Li9  1  0.75000000  0.00000000  0.87044000  1.0
  Li  Li10  1  0.75000000  0.50000000  0.87044000  1.0
  Li  Li11  1  0.78093000  0.00000000  0.04719000  1.0
  Ag  Ag12  2  0.00000000  0.25000000  0.87044000  1.0
  Ag  Ag13  2  0.00113000  0.27178000  0.04036000  1.0
  Ag  Ag14  1  0.46554000  0.50000000  0.12337000  1.0
  Ag  Ag15  1  0.50000000  0.00000000  0.95681000  1.0
  Ag  Ag16  1  0.50000000  0.50000000  0.95681000  1.0
  Ag  Ag17  1  0.52673000  0.00000000  0.12612000  1.0
  Sn  Sn18  2  0.50000000  0.25000000  0.87044000  1.0
  Sn  Sn19  2  0.50165000  0.23944000  0.04389000  1.0
  Sn  Sn20  1  0.00000000  0.00000000  0.95681000  1.0
  Sn  Sn21  1  0.00000000  0.50000000  0.95681000  1.0
  Sn  Sn22  1  0.02042000  0.50000000  0.12845000  1.0
  Sn  Sn23  1  0.91927000  0.00000000  0.16484000  1.0
  C  C24  1  0.20476000  0.00000000  0.13629000  1.0
