data_image0
_chemical_formula_structural       Li8Zn8Ge8Pd8C
_chemical_formula_sum              "Li8 Zn8 Ge8 Pd8 C1"
_cell_length_a       6.18512
_cell_length_b       8.74708
_cell_length_c       26.5603
_cell_angle_alpha    90
_cell_angle_beta     90
_cell_angle_gamma    90

_space_group_name_H-M_alt    "P 1"
_space_group_IT_number       1

loop_
  _space_group_symop_operation_xyz
  'x, y, z'

loop_
  _atom_site_type_symbol
  _atom_site_label
  _atom_site_symmetry_multiplicity
  _atom_site_fract_x
  _atom_site_fract_y
  _atom_site_fract_z
  _atom_site_occupancy
  Li  Li1       1.0  0.75000  0.00000  0.95883  1.0000
  Li  Li2       1.0  0.75000  0.50000  0.95883  1.0000
  Li  Li3       1.0  0.25000  0.25000  0.87650  1.0000
  Li  Li4       1.0  0.25000  0.75000  0.87650  1.0000
  Li  Li5       1.0  0.73312  0.52703  0.13255  1.0000
  Li  Li6       1.0  0.73312  0.97297  0.13255  1.0000
  Li  Li7       1.0  0.25031  0.75000  0.03911  1.0000
  Li  Li8       1.0  0.27936  0.25000  0.05172  1.0000
  Zn  Zn1       1.0  0.00000  0.25000  0.95883  1.0000
  Zn  Zn2       1.0  0.00000  0.75000  0.95883  1.0000
  Zn  Zn3       1.0  0.50000  0.50000  0.87650  1.0000
  Zn  Zn4       1.0  0.50000  0.00000  0.87650  1.0000
  Zn  Zn5       1.0  0.03950  0.75000  0.12290  1.0000
  Zn  Zn6       1.0  0.94627  0.25000  0.12269  1.0000
  Zn  Zn7       1.0  0.51190  0.98878  0.04057  1.0000
  Zn  Zn8       1.0  0.51190  0.51122  0.04057  1.0000
  Ge  Ge1       1.0  0.00000  0.00000  0.87650  1.0000
  Ge  Ge2       1.0  0.00000  0.50000  0.87650  1.0000
  Ge  Ge3       1.0  0.50000  0.75000  0.95883  1.0000
  Ge  Ge4       1.0  0.50000  0.25000  0.95883  1.0000
  Ge  Ge5       1.0  0.99502  0.49416  0.04536  1.0000
  Ge  Ge6       1.0  0.99502  0.00584  0.04536  1.0000
  Ge  Ge7       1.0  0.54228  0.25001  0.16273  1.0000
  Ge  Ge8       1.0  0.46011  0.75000  0.13224  1.0000
  Pd  Pd1       1.0  0.25000  0.00000  0.95883  1.0000
  Pd  Pd2       1.0  0.25000  0.50000  0.95883  1.0000
  Pd  Pd3       1.0  0.75000  0.25000  0.87650  1.0000
  Pd  Pd4       1.0  0.75000  0.75000  0.87650  1.0000
  Pd  Pd5       1.0  0.26945  0.48722  0.12078  1.0000
  Pd  Pd6       1.0  0.26944  0.01278  0.12078  1.0000
  Pd  Pd7       1.0  0.76705  0.75000  0.04428  1.0000
  Pd  Pd8       1.0  0.74319  0.25000  0.03727  1.0000
  C   C1        1.0  0.25588  0.25000  0.13913  1.0000
