# generated using pymatgen
data_Li16Be16C
_symmetry_space_group_name_H-M   P1
_cell_length_a   5.62306000
_cell_length_b   7.95221000
_cell_length_c   25.96420000
_cell_angle_alpha   90.00000000
_cell_angle_beta   90.00000000
_cell_angle_gamma   90.00000000
_symmetry_Int_Tables_number   1
_chemical_formula_structural   Li16Be16C
_chemical_formula_sum   'Li16 Be16 C1'
_cell_volume   1161.00877904
_cell_formula_units_Z   1
loop_
 _symmetry_equiv_pos_site_id
 _symmetry_equiv_pos_as_xyz
  1  'x, y, z'
loop_
 _atom_site_type_symbol
 _atom_site_label
 _atom_site_symmetry_multiplicity
 _atom_site_fract_x
 _atom_site_fract_y
 _atom_site_fract_z
 _atom_site_occupancy
  Li  Li0  1  0.00000000  0.00000000  0.88515000  1.0
  Li  Li1  1  0.00000000  0.25000000  0.96172000  1.0
  Li  Li2  1  0.00000000  0.50000000  0.88515000  1.0
  Li  Li3  1  0.00000000  0.75000000  0.96172000  1.0
  Li  Li4  1  0.00912000  0.74999000  0.13090000  1.0
  Li  Li5  1  0.49088000  0.75003000  0.13091000  1.0
  Li  Li6  1  0.50000000  0.00000000  0.88515000  1.0
  Li  Li7  1  0.50000000  0.25000000  0.96172000  1.0
  Li  Li8  1  0.50000000  0.50000000  0.88515000  1.0
  Li  Li9  1  0.50000000  0.75000000  0.96172000  1.0
  Li  Li10  1  0.50570000  0.50191000  0.03372000  1.0
  Li  Li11  1  0.50573000  0.99805000  0.03373000  1.0
  Li  Li12  1  0.52252000  0.24997000  0.14865000  1.0
  Li  Li13  1  0.97747000  0.25006000  0.14866000  1.0
  Li  Li14  1  0.99428000  0.50189000  0.03374000  1.0
  Li  Li15  1  0.99428000  0.99801000  0.03371000  1.0
  Be  Be16  1  0.24986000  0.03793000  0.10393000  1.0
  Be  Be17  1  0.24999000  0.24996000  0.03362000  1.0
  Be  Be18  1  0.25000000  0.00000000  0.96172000  1.0
  Be  Be19  1  0.25000000  0.25000000  0.88515000  1.0
  Be  Be20  1  0.25000000  0.50000000  0.96172000  1.0
  Be  Be21  1  0.25000000  0.74997000  0.05099000  1.0
  Be  Be22  1  0.25000000  0.75000000  0.88515000  1.0
  Be  Be23  1  0.25010000  0.46217000  0.10395000  1.0
  Be  Be24  1  0.74990000  0.50607000  0.10523000  1.0
  Be  Be25  1  0.75000000  0.00000000  0.96172000  1.0
  Be  Be26  1  0.75000000  0.25000000  0.88515000  1.0
  Be  Be27  1  0.75000000  0.50000000  0.96172000  1.0
  Be  Be28  1  0.75000000  0.74997000  0.05059000  1.0
  Be  Be29  1  0.75000000  0.75000000  0.88515000  1.0
  Be  Be30  1  0.75004000  0.24997000  0.06376000  1.0
  Be  Be31  1  0.75012000  0.99394000  0.10523000  1.0
  C  C32  1  0.24997000  0.25006000  0.09776000  1.0
