data_image0
_chemical_formula_structural       Li8In16Pt8CO
_chemical_formula_sum              "Li8 In16 Pt8 C1 O1"
_cell_length_a       6.69031
_cell_length_b       9.46152
_cell_length_c       27.0961
_cell_angle_alpha    90
_cell_angle_beta     90
_cell_angle_gamma    90

_space_group_name_H-M_alt    "P 1"
_space_group_IT_number       1

loop_
  _space_group_symop_operation_xyz
  'x, y, z'

loop_
  _atom_site_type_symbol
  _atom_site_label
  _atom_site_symmetry_multiplicity
  _atom_site_fract_x
  _atom_site_fract_y
  _atom_site_fract_z
  _atom_site_occupancy
  Li  Li1       1.0  0.00000  0.00000  0.86906  1.0000
  Li  Li2       1.0  0.50000  0.25000  0.95635  1.0000
  Li  Li3       1.0  0.50000  0.75000  0.95635  1.0000
  Li  Li4       1.0  0.00000  0.50000  0.86906  1.0000
  Li  Li5       1.0  0.00000  0.49906  0.04704  1.0000
  Li  Li6       1.0  0.50000  0.75000  0.14542  1.0000
  Li  Li7       1.0  0.50000  0.25000  0.14879  1.0000
  Li  Li8       1.0  0.00000  0.00094  0.04704  1.0000
  In  In1       1.0  0.25000  0.00000  0.95635  1.0000
  In  In2       1.0  0.75000  0.50000  0.95635  1.0000
  In  In3       1.0  0.75000  0.00000  0.95635  1.0000
  In  In4       1.0  0.25000  0.50000  0.95635  1.0000
  In  In5       1.0  0.75000  0.75000  0.86906  1.0000
  In  In6       1.0  0.25000  0.25000  0.86906  1.0000
  In  In7       1.0  0.25000  0.75000  0.86906  1.0000
  In  In8       1.0  0.75000  0.25000  0.86906  1.0000
  In  In9       1.0  0.24304  0.50088  0.14083  1.0000
  In  In10      1.0  0.75696  0.99912  0.14083  1.0000
  In  In11      1.0  0.75696  0.50088  0.14083  1.0000
  In  In12      1.0  0.24303  0.99912  0.14083  1.0000
  In  In13      1.0  0.73929  0.25000  0.04696  1.0000
  In  In14      1.0  0.25802  0.75000  0.04632  1.0000
  In  In15      1.0  0.26070  0.25000  0.04697  1.0000
  In  In16      1.0  0.74198  0.75000  0.04632  1.0000
  Pt  Pt1       1.0  0.00000  0.75000  0.95635  1.0000
  Pt  Pt2       1.0  0.50000  0.00000  0.86906  1.0000
  Pt  Pt3       1.0  0.00000  0.25000  0.95635  1.0000
  Pt  Pt4       1.0  0.50000  0.50000  0.86906  1.0000
  Pt  Pt5       1.0  0.00000  0.25000  0.12447  1.0000
  Pt  Pt6       1.0  0.50000  0.50069  0.04015  1.0000
  Pt  Pt7       1.0  0.00000  0.75000  0.12442  1.0000
  Pt  Pt8       1.0  0.50000  0.99931  0.04015  1.0000
  C   C1        1.0  0.50000  0.25000  0.22641  1.0000
  O   O1        1.0  0.50000  0.25000  0.26832  1.0000
