# generated using pymatgen
data_Li8In16Pt8CO
_symmetry_space_group_name_H-M   'P 1'
_cell_length_a   9.46152000
_cell_length_b   6.69031000
_cell_length_c   27.09610000
_cell_angle_alpha   90.00000000
_cell_angle_beta   90.00000000
_cell_angle_gamma   90.00000000
_symmetry_Int_Tables_number   1
_chemical_formula_structural   Li8In16Pt8CO
_chemical_formula_sum   'Li8 In16 Pt8 C1 O1'
_cell_volume   1715.19672875
_cell_formula_units_Z   1
loop_
 _symmetry_equiv_pos_site_id
 _symmetry_equiv_pos_as_xyz
  1  'x, y, z'
loop_
 _atom_site_type_symbol
 _atom_site_label
 _atom_site_symmetry_multiplicity
 _atom_site_fract_x
 _atom_site_fract_y
 _atom_site_fract_z
 _atom_site_occupancy
  Li  Li0  1  0.75000000  0.00000000  0.13094000  1.0
  Li  Li1  1  0.00000000  0.50000000  0.04365000  1.0
  Li  Li2  1  0.50000000  0.50000000  0.04365000  1.0
  Li  Li3  1  0.25000000  0.00000000  0.13094000  1.0
  Li  Li4  1  0.24727000  0.00002000  0.95185000  1.0
  Li  Li5  1  0.50000000  0.49996000  0.85529000  1.0
  Li  Li6  1  0.00000000  0.49997000  0.84107000  1.0
  Li  Li7  1  0.75273000  0.00002000  0.95185000  1.0
  In  In8  1  0.75000000  0.25000000  0.04365000  1.0
  In  In9  1  0.25000000  0.75000000  0.04365000  1.0
  In  In10  1  0.75000000  0.75000000  0.04365000  1.0
  In  In11  1  0.25000000  0.25000000  0.04365000  1.0
  In  In12  1  0.50000000  0.75000000  0.13094000  1.0
  In  In13  1  0.00000000  0.25000000  0.13094000  1.0
  In  In14  1  0.50000000  0.25000000  0.13094000  1.0
  In  In15  1  0.00000000  0.75000000  0.13094000  1.0
  In  In16  1  0.24976000  0.24411000  0.85813000  1.0
  In  In17  1  0.75016000  0.75587000  0.85813000  1.0
  In  In18  1  0.24984000  0.75587000  0.85813000  1.0
  In  In19  1  0.75024000  0.24411000  0.85813000  1.0
  In  In20  1  0.00000000  0.73676000  0.95181000  1.0
  In  In21  1  0.50000000  0.25614000  0.95368000  1.0
  In  In22  1  0.00000000  0.26339000  0.95173000  1.0
  In  In23  1  0.50000000  0.74389000  0.95369000  1.0
  Pt  Pt24  1  0.50000000  0.00000000  0.04365000  1.0
  Pt  Pt25  1  0.75000000  0.50000000  0.13094000  1.0
  Pt  Pt26  1  0.00000000  0.00000000  0.04365000  1.0
  Pt  Pt27  1  0.25000000  0.50000000  0.13094000  1.0
  Pt  Pt28  1  0.00000000  0.00043000  0.87453000  1.0
  Pt  Pt29  1  0.25293000  0.50013000  0.95987000  1.0
  Pt  Pt30  1  0.50000000  0.00001000  0.87511000  1.0
  Pt  Pt31  1  0.74707000  0.50013000  0.95987000  1.0
  C  C32  1  0.00000000  0.49998000  0.76386000  1.0
  O  O33  1  0.00000000  0.49997000  0.72184000  1.0
