# generated using pymatgen
data_Li8In16Pt8CO
_symmetry_space_group_name_H-M   Pm
_cell_length_a   6.69031000
_cell_length_b   9.46152000
_cell_length_c   27.09610000
_cell_angle_alpha   90.00000000
_cell_angle_beta   90.00000000
_cell_angle_gamma   90.00000000
_symmetry_Int_Tables_number   6
_chemical_formula_structural   Li8In16Pt8CO
_chemical_formula_sum   'Li8 In16 Pt8 C1 O1'
_cell_volume   1715.19672875
_cell_formula_units_Z   1
loop_
 _symmetry_equiv_pos_site_id
 _symmetry_equiv_pos_as_xyz
  1  'x, y, z'
  2  'x, -y, z'
loop_
 _atom_site_type_symbol
 _atom_site_label
 _atom_site_symmetry_multiplicity
 _atom_site_fract_x
 _atom_site_fract_y
 _atom_site_fract_z
 _atom_site_occupancy
  Li  Li0  2  0.00000000  0.25000000  0.86906000  1.0
  Li  Li1  2  0.00002000  0.24727000  0.04815000  1.0
  Li  Li2  1  0.49996000  0.50000000  0.14471000  1.0
  Li  Li3  1  0.49997000  0.00000000  0.15893000  1.0
  Li  Li4  1  0.50000000  0.00000000  0.95635000  1.0
  Li  Li5  1  0.50000000  0.50000000  0.95635000  1.0
  In  In6  2  0.24411000  0.24976000  0.14187000  1.0
  In  In7  2  0.25000000  0.25000000  0.95635000  1.0
  In  In8  2  0.75000000  0.25000000  0.95635000  1.0
  In  In9  2  0.75587000  0.24984000  0.14187000  1.0
  In  In10  1  0.25000000  0.00000000  0.86906000  1.0
  In  In11  1  0.25000000  0.50000000  0.86906000  1.0
  In  In12  1  0.25614000  0.50000000  0.04632000  1.0
  In  In13  1  0.26339000  0.00000000  0.04827000  1.0
  In  In14  1  0.73676000  0.00000000  0.04819000  1.0
  In  In15  1  0.74389000  0.50000000  0.04631000  1.0
  In  In16  1  0.75000000  0.00000000  0.86906000  1.0
  In  In17  1  0.75000000  0.50000000  0.86906000  1.0
  Pt  Pt18  2  0.50000000  0.25000000  0.86906000  1.0
  Pt  Pt19  2  0.50013000  0.25293000  0.04013000  1.0
  Pt  Pt20  1  0.00000000  0.00000000  0.95635000  1.0
  Pt  Pt21  1  0.00000000  0.50000000  0.95635000  1.0
  Pt  Pt22  1  0.00001000  0.50000000  0.12489000  1.0
  Pt  Pt23  1  0.00043000  0.00000000  0.12547000  1.0
  C  C24  1  0.49998000  0.00000000  0.23614000  1.0
  O  O25  1  0.49997000  0.00000000  0.27816000  1.0
