# generated using pymatgen
data_Li2AgBi
_symmetry_space_group_name_H-M   'P 1'
_cell_length_a   6.92564000
_cell_length_b   6.92564000
_cell_length_c   25.19420000
_cell_angle_alpha   90.00000000
_cell_angle_beta   90.00000000
_cell_angle_gamma   90.00000000
_symmetry_Int_Tables_number   1
_chemical_formula_structural   Li2AgBi
_chemical_formula_sum   'Li8 Ag4 Bi4'
_cell_volume   1208.42693908
_cell_formula_units_Z   4
loop_
 _symmetry_equiv_pos_site_id
 _symmetry_equiv_pos_as_xyz
  1  'x, y, z'
loop_
 _atom_site_type_symbol
 _atom_site_label
 _atom_site_symmetry_multiplicity
 _atom_site_fract_x
 _atom_site_fract_y
 _atom_site_fract_z
 _atom_site_occupancy
  Li  Li0  1  0.00000000  0.00000000  0.96564000  1.0
  Li  Li1  1  0.49985000  0.00008000  0.10618000  1.0
  Li  Li2  1  0.00013000  0.49993000  0.10612000  1.0
  Li  Li3  1  0.50000000  0.50000000  0.96564000  1.0
  Li  Li4  1  0.24998000  0.25001000  0.03892000  1.0
  Li  Li5  1  0.25000000  0.75000000  0.89692000  1.0
  Li  Li6  1  0.75003000  0.75000000  0.03898000  1.0
  Li  Li7  1  0.75000000  0.25000000  0.89692000  1.0
  Ag  Ag8  1  0.25000000  0.25000000  0.89692000  1.0
  Ag  Ag9  1  0.25003000  0.75005000  0.03830000  1.0
  Ag  Ag10  1  0.75000000  0.75000000  0.89692000  1.0
  Ag  Ag11  1  0.75000000  0.24990000  0.03828000  1.0
  Bi  Bi12  1  0.00027000  0.99998000  0.10257000  1.0
  Bi  Bi13  1  0.49975000  0.49994000  0.10254000  1.0
  Bi  Bi14  1  0.50000000  0.00000000  0.96564000  1.0
  Bi  Bi15  1  0.00000000  0.50000000  0.96564000  1.0
