# generated using pymatgen
data_Li8In8Cu8Pd8CO
_symmetry_space_group_name_H-M   P1
_cell_length_a   6.33486000
_cell_length_b   8.95884000
_cell_length_c   26.71910000
_cell_angle_alpha   90.00000000
_cell_angle_beta   90.00000000
_cell_angle_gamma   90.00000000
_symmetry_Int_Tables_number   1
_chemical_formula_structural   Li8In8Cu8Pd8CO
_chemical_formula_sum   'Li8 In8 Cu8 Pd8 C1 O1'
_cell_volume   1516.38900648
_cell_formula_units_Z   1
loop_
 _symmetry_equiv_pos_site_id
 _symmetry_equiv_pos_as_xyz
  1  'x, y, z'
loop_
 _atom_site_type_symbol
 _atom_site_label
 _atom_site_symmetry_multiplicity
 _atom_site_fract_x
 _atom_site_fract_y
 _atom_site_fract_z
 _atom_site_occupancy
  Li  Li0  1  0.24138000  0.00001000  0.12875000  1.0
  Li  Li1  1  0.24392000  0.50001000  0.12911000  1.0
  Li  Li2  1  0.25000000  0.00000000  0.95809000  1.0
  Li  Li3  1  0.25000000  0.50000000  0.95809000  1.0
  Li  Li4  1  0.75000000  0.25000000  0.87426000  1.0
  Li  Li5  1  0.75000000  0.75000000  0.87426000  1.0
  Li  Li6  1  0.75265000  0.24581000  0.03660000  1.0
  Li  Li7  1  0.75265000  0.75418000  0.03660000  1.0
  In  In8  1  0.25000000  0.25000000  0.87426000  1.0
  In  In9  1  0.25000000  0.75000000  0.87426000  1.0
  In  In10  1  0.25266000  0.74417000  0.04183000  1.0
  In  In11  1  0.25268000  0.25582000  0.04183000  1.0
  In  In12  1  0.74490000  0.50003000  0.14633000  1.0
  In  In13  1  0.74820000  0.00003000  0.13768000  1.0
  In  In14  1  0.75000000  0.00000000  0.95809000  1.0
  In  In15  1  0.75000000  0.50000000  0.95809000  1.0
  Cu  Cu16  1  0.00000000  0.00000000  0.87426000  1.0
  Cu  Cu17  1  0.00000000  0.50000000  0.87426000  1.0
  Cu  Cu18  1  0.50000000  0.25000000  0.95809000  1.0
  Cu  Cu19  1  0.50000000  0.75000000  0.95809000  1.0
  Cu  Cu20  1  0.53341000  0.25219000  0.11682000  1.0
  Cu  Cu21  1  0.53341000  0.74783000  0.11682000  1.0
  Cu  Cu22  1  0.97663000  0.50000000  0.04878000  1.0
  Cu  Cu23  1  0.99826000  0.00000000  0.04501000  1.0
  Pd  Pd24  1  0.00000000  0.25000000  0.95809000  1.0
  Pd  Pd25  1  0.00000000  0.75000000  0.95809000  1.0
  Pd  Pd26  1  0.50000000  0.00000000  0.87426000  1.0
  Pd  Pd27  1  0.50000000  0.50000000  0.87426000  1.0
  Pd  Pd28  1  0.50561000  0.99999000  0.04650000  1.0
  Pd  Pd29  1  0.52590000  0.50000000  0.04927000  1.0
  Pd  Pd30  1  0.97049000  0.25348000  0.11781000  1.0
  Pd  Pd31  1  0.97049000  0.74655000  0.11781000  1.0
  C  C32  1  0.65408000  0.99980000  0.27081000  1.0
  O  O33  1  0.79214000  0.00006000  0.29796000  1.0
