# generated using pymatgen
data_Sc16Pd16C
_symmetry_space_group_name_H-M   'P 1'
_cell_length_a   9.41967000
_cell_length_b   6.66071000
_cell_length_c   27.06480000
_cell_angle_alpha   90.00000000
_cell_angle_beta   90.00000000
_cell_angle_gamma   90.00000000
_symmetry_Int_Tables_number   1
_chemical_formula_structural   Sc16Pd16C
_chemical_formula_sum   'Sc16 Pd16 C1'
_cell_volume   1698.09129600
_cell_formula_units_Z   1
loop_
 _symmetry_equiv_pos_site_id
 _symmetry_equiv_pos_as_xyz
  1  'x, y, z'
loop_
 _atom_site_type_symbol
 _atom_site_label
 _atom_site_symmetry_multiplicity
 _atom_site_fract_x
 _atom_site_fract_y
 _atom_site_fract_z
 _atom_site_occupancy
  Sc  Sc0  1  0.00000000  0.25000000  0.13052000  1.0
  Sc  Sc1  1  0.75000000  0.25000000  0.04351000  1.0
  Sc  Sc2  1  0.00000000  0.25030000  0.95402000  1.0
  Sc  Sc3  1  0.76872000  0.25019000  0.86967000  1.0
  Sc  Sc4  1  0.50000000  0.25000000  0.13052000  1.0
  Sc  Sc5  1  0.25000000  0.25000000  0.04351000  1.0
  Sc  Sc6  1  0.50000000  0.24995000  0.95700000  1.0
  Sc  Sc7  1  0.23128000  0.25019000  0.86967000  1.0
  Sc  Sc8  1  0.00000000  0.75000000  0.13052000  1.0
  Sc  Sc9  1  0.75000000  0.75000000  0.04351000  1.0
  Sc  Sc10  1  0.00000000  0.75020000  0.95687000  1.0
  Sc  Sc11  1  0.74272000  0.75020000  0.86929000  1.0
  Sc  Sc12  1  0.50000000  0.75000000  0.13052000  1.0
  Sc  Sc13  1  0.25000000  0.75000000  0.04351000  1.0
  Sc  Sc14  1  0.50000000  0.75003000  0.95631000  1.0
  Sc  Sc15  1  0.25728000  0.75020000  0.86929000  1.0
  Pd  Pd16  1  0.75000000  0.00000000  0.13052000  1.0
  Pd  Pd17  1  0.00000000  0.00000000  0.04351000  1.0
  Pd  Pd18  1  0.74555000  0.99659000  0.95730000  1.0
  Pd  Pd19  1  0.00000000  0.94808000  0.87136000  1.0
  Pd  Pd20  1  0.25000000  0.00000000  0.13052000  1.0
  Pd  Pd21  1  0.50000000  0.00000000  0.04351000  1.0
  Pd  Pd22  1  0.25445000  0.99659000  0.95730000  1.0
  Pd  Pd23  1  0.50000000  0.01011000  0.87677000  1.0
  Pd  Pd24  1  0.75000000  0.50000000  0.13052000  1.0
  Pd  Pd25  1  0.00000000  0.50000000  0.04351000  1.0
  Pd  Pd26  1  0.74540000  0.50358000  0.95733000  1.0
  Pd  Pd27  1  0.00000000  0.55368000  0.87122000  1.0
  Pd  Pd28  1  0.25000000  0.50000000  0.13052000  1.0
  Pd  Pd29  1  0.50000000  0.50000000  0.04351000  1.0
  Pd  Pd30  1  0.25460000  0.50358000  0.95733000  1.0
  Pd  Pd31  1  0.50000000  0.48993000  0.87678000  1.0
  C  C32  1  0.00000000  0.25111000  0.87336000  1.0
