# generated using pymatgen
data_Li16Pb16CO
_symmetry_space_group_name_H-M   'P 1'
_cell_length_a   10.20490000
_cell_length_b   7.21597000
_cell_length_c   27.65370000
_cell_angle_alpha   90.00000000
_cell_angle_beta   90.00000000
_cell_angle_gamma   90.00000000
_symmetry_Int_Tables_number   1
_chemical_formula_structural   Li16Pb16CO
_chemical_formula_sum   'Li16 Pb16 C1 O1'
_cell_volume   2036.37013633
_cell_formula_units_Z   1
loop_
 _symmetry_equiv_pos_site_id
 _symmetry_equiv_pos_as_xyz
  1  'x, y, z'
loop_
 _atom_site_type_symbol
 _atom_site_label
 _atom_site_symmetry_multiplicity
 _atom_site_fract_x
 _atom_site_fract_y
 _atom_site_fract_z
 _atom_site_occupancy
  Li  Li0  1  0.00000000  0.00000000  0.13838000  1.0
  Li  Li1  1  0.25000000  0.00000000  0.04613000  1.0
  Li  Li2  1  0.00102000  0.00000000  0.95396000  1.0
  Li  Li3  1  0.25108000  0.00000000  0.86015000  1.0
  Li  Li4  1  0.50000000  0.00000000  0.13838000  1.0
  Li  Li5  1  0.75000000  0.00000000  0.04613000  1.0
  Li  Li6  1  0.49962000  0.00000000  0.95486000  1.0
  Li  Li7  1  0.74881000  0.00000000  0.85824000  1.0
  Li  Li8  1  0.00000000  0.50000000  0.13838000  1.0
  Li  Li9  1  0.25000000  0.50000000  0.04613000  1.0
  Li  Li10  1  0.99719000  0.50000000  0.95547000  1.0
  Li  Li11  1  0.25083000  0.50000000  0.86141000  1.0
  Li  Li12  1  0.50000000  0.50000000  0.13838000  1.0
  Li  Li13  1  0.75000000  0.50000000  0.04613000  1.0
  Li  Li14  1  0.50048000  0.50000000  0.95546000  1.0
  Li  Li15  1  0.74871000  0.50000000  0.86104000  1.0
  Pb  Pb16  1  0.25000000  0.74996000  0.13838000  1.0
  Pb  Pb17  1  0.00000000  0.74996000  0.04613000  1.0
  Pb  Pb18  1  0.24980000  0.75207000  0.94931000  1.0
  Pb  Pb19  1  0.50448000  0.74546000  0.86174000  1.0
  Pb  Pb20  1  0.75000000  0.74996000  0.13838000  1.0
  Pb  Pb21  1  0.50000000  0.74996000  0.04613000  1.0
  Pb  Pb22  1  0.74965000  0.75552000  0.94927000  1.0
  Pb  Pb23  1  0.99546000  0.74467000  0.86166000  1.0
  Pb  Pb24  1  0.25000000  0.25004000  0.13838000  1.0
  Pb  Pb25  1  0.00000000  0.25004000  0.04613000  1.0
  Pb  Pb26  1  0.24980000  0.24793000  0.94931000  1.0
  Pb  Pb27  1  0.50448000  0.25454000  0.86174000  1.0
  Pb  Pb28  1  0.75000000  0.25004000  0.13838000  1.0
  Pb  Pb29  1  0.50000000  0.25004000  0.04613000  1.0
  Pb  Pb30  1  0.74965000  0.24448000  0.94927000  1.0
  Pb  Pb31  1  0.99546000  0.25533000  0.86166000  1.0
  C  C32  1  0.25154000  0.00000000  0.78502000  1.0
  O  O33  1  0.25201000  0.00000000  0.74365000  1.0
