# generated using pymatgen
data_Li16Pb16CO
_symmetry_space_group_name_H-M   Pm
_cell_length_a   10.20490000
_cell_length_b   7.21597000
_cell_length_c   27.65370000
_cell_angle_alpha   90.00000000
_cell_angle_beta   90.00000000
_cell_angle_gamma   90.00000000
_symmetry_Int_Tables_number   6
_chemical_formula_structural   Li16Pb16CO
_chemical_formula_sum   'Li16 Pb16 C1 O1'
_cell_volume   2036.37013633
_cell_formula_units_Z   1
loop_
 _symmetry_equiv_pos_site_id
 _symmetry_equiv_pos_as_xyz
  1  'x, y, z'
  2  'x, -y, z'
loop_
 _atom_site_type_symbol
 _atom_site_label
 _atom_site_symmetry_multiplicity
 _atom_site_fract_x
 _atom_site_fract_y
 _atom_site_fract_z
 _atom_site_occupancy
  Li  Li0  1  0.00000000  0.00000000  0.86162000  1.0
  Li  Li1  1  0.00000000  0.50000000  0.86162000  1.0
  Li  Li2  1  0.00102000  0.00000000  0.04604000  1.0
  Li  Li3  1  0.25000000  0.00000000  0.95387000  1.0
  Li  Li4  1  0.25000000  0.50000000  0.95387000  1.0
  Li  Li5  1  0.25083000  0.50000000  0.13859000  1.0
  Li  Li6  1  0.25108000  0.00000000  0.13985000  1.0
  Li  Li7  1  0.49962000  0.00000000  0.04514000  1.0
  Li  Li8  1  0.50000000  0.00000000  0.86162000  1.0
  Li  Li9  1  0.50000000  0.50000000  0.86162000  1.0
  Li  Li10  1  0.50048000  0.50000000  0.04454000  1.0
  Li  Li11  1  0.74871000  0.50000000  0.13896000  1.0
  Li  Li12  1  0.74881000  0.00000000  0.14176000  1.0
  Li  Li13  1  0.75000000  0.00000000  0.95387000  1.0
  Li  Li14  1  0.75000000  0.50000000  0.95387000  1.0
  Li  Li15  1  0.99719000  0.50000000  0.04453000  1.0
  Pb  Pb16  2  0.00000000  0.25004000  0.95387000  1.0
  Pb  Pb17  2  0.24980000  0.24793000  0.05069000  1.0
  Pb  Pb18  2  0.25000000  0.25004000  0.86162000  1.0
  Pb  Pb19  2  0.50000000  0.25004000  0.95387000  1.0
  Pb  Pb20  2  0.50448000  0.25454000  0.13826000  1.0
  Pb  Pb21  2  0.74965000  0.24448000  0.05073000  1.0
  Pb  Pb22  2  0.75000000  0.25004000  0.86162000  1.0
  Pb  Pb23  2  0.99546000  0.25533000  0.13834000  1.0
  C  C24  1  0.25154000  0.00000000  0.21498000  1.0
  O  O25  1  0.25201000  0.00000000  0.25635000  1.0
