# generated using pymatgen
data_TiNi
_symmetry_space_group_name_H-M   'P 1'
_cell_length_a   3.01818000
_cell_length_b   4.26835000
_cell_length_c   26.40250000
_cell_angle_alpha   90.00000000
_cell_angle_beta   90.00000000
_cell_angle_gamma   90.00000000
_symmetry_Int_Tables_number   1
_chemical_formula_structural   TiNi
_chemical_formula_sum   'Ti4 Ni4'
_cell_volume   340.13412974
_cell_formula_units_Z   4
loop_
 _symmetry_equiv_pos_site_id
 _symmetry_equiv_pos_as_xyz
  1  'x, y, z'
loop_
 _atom_site_type_symbol
 _atom_site_label
 _atom_site_symmetry_multiplicity
 _atom_site_fract_x
 _atom_site_fract_y
 _atom_site_fract_z
 _atom_site_occupancy
  Ti  Ti0  1  0.50000000  0.50000000  0.87875000  1.0
  Ti  Ti1  1  0.50000000  0.00000000  0.95958000  1.0
  Ti  Ti2  1  0.50000000  0.50000000  0.03931000  1.0
  Ti  Ti3  1  0.50000000  0.00000000  0.12365000  1.0
  Ni  Ni4  1  0.00000000  0.00000000  0.87875000  1.0
  Ni  Ni5  1  0.00000000  0.50000000  0.95958000  1.0
  Ni  Ni6  1  0.00000000  0.00000000  0.04501500  1.0
  Ni  Ni7  1  0.00000000  0.50000000  0.11313500  1.0
