# generated using pymatgen
data_Cu24Sn8CO
_symmetry_space_group_name_H-M   'P 1'
_cell_length_a   6.23499000
_cell_length_b   8.81761000
_cell_length_c   26.61320000
_cell_angle_alpha   90.00000000
_cell_angle_beta   90.00000000
_cell_angle_gamma   90.00000000
_symmetry_Int_Tables_number   1
_chemical_formula_structural   Cu24Sn8CO
_chemical_formula_sum   'Cu24 Sn8 C1 O1'
_cell_volume   1463.13279640
_cell_formula_units_Z   1
loop_
 _symmetry_equiv_pos_site_id
 _symmetry_equiv_pos_as_xyz
  1  'x, y, z'
loop_
 _atom_site_type_symbol
 _atom_site_label
 _atom_site_symmetry_multiplicity
 _atom_site_fract_x
 _atom_site_fract_y
 _atom_site_fract_z
 _atom_site_occupancy
  Cu  Cu0  1  0.25000000  0.75000000  0.95858000  1.0
  Cu  Cu1  1  0.75000000  0.25000000  0.95858000  1.0
  Cu  Cu2  1  0.75000000  0.75000000  0.95858000  1.0
  Cu  Cu3  1  0.25000000  0.25000000  0.95858000  1.0
  Cu  Cu4  1  0.75000000  0.50000000  0.87575000  1.0
  Cu  Cu5  1  0.25000000  0.00000000  0.87575000  1.0
  Cu  Cu6  1  0.25000000  0.50000000  0.87575000  1.0
  Cu  Cu7  1  0.75000000  0.00000000  0.87575000  1.0
  Cu  Cu8  1  0.00000000  0.50000000  0.95858000  1.0
  Cu  Cu9  1  0.50000000  0.75000000  0.87575000  1.0
  Cu  Cu10  1  0.00000000  0.00000000  0.95858000  1.0
  Cu  Cu11  1  0.50000000  0.25000000  0.87575000  1.0
  Cu  Cu12  1  0.28099000  0.25098000  0.11656000  1.0
  Cu  Cu13  1  0.71901000  0.74902000  0.11656000  1.0
  Cu  Cu14  1  0.71901000  0.25098000  0.11656000  1.0
  Cu  Cu15  1  0.28099000  0.74902000  0.11656000  1.0
  Cu  Cu16  1  0.71403000  0.00000000  0.04989000  1.0
  Cu  Cu17  1  0.28876000  0.50000000  0.05176000  1.0
  Cu  Cu18  1  0.28597000  0.00000000  0.04989000  1.0
  Cu  Cu19  1  0.71124000  0.50000000  0.05176000  1.0
  Cu  Cu20  1  0.00000000  0.00000000  0.11637000  1.0
  Cu  Cu21  1  0.50000000  0.24980000  0.03500000  1.0
  Cu  Cu22  1  0.00000000  0.50000000  0.11752000  1.0
  Cu  Cu23  1  0.50000000  0.75020000  0.03500000  1.0
  Sn  Sn24  1  0.00000000  0.75000000  0.87575000  1.0
  Sn  Sn25  1  0.50000000  0.00000000  0.95858000  1.0
  Sn  Sn26  1  0.50000000  0.50000000  0.95858000  1.0
  Sn  Sn27  1  0.00000000  0.25000000  0.87575000  1.0
  Sn  Sn28  1  0.00000000  0.25033000  0.04187000  1.0
  Sn  Sn29  1  0.50000000  0.50000000  0.14805000  1.0
  Sn  Sn30  1  0.50000000  0.00000000  0.14501000  1.0
  Sn  Sn31  1  0.00000000  0.74967000  0.04187000  1.0
  C  C32  1  0.50000000  0.00000000  0.29587000  1.0
  O  O33  1  0.50000000  0.00000000  0.33850000  1.0
