# generated using pymatgen
data_GaFe3
_symmetry_space_group_name_H-M   Pmm2
_cell_length_a   3.66873500
_cell_length_b   5.18838000
_cell_length_c   23.89130000
_cell_angle_alpha   90.00000000
_cell_angle_beta   90.00000000
_cell_angle_gamma   90.00000000
_symmetry_Int_Tables_number   25
_chemical_formula_structural   GaFe3
_chemical_formula_sum   'Ga2 Fe6'
_cell_volume   454.76590937
_cell_formula_units_Z   2
loop_
 _symmetry_equiv_pos_site_id
 _symmetry_equiv_pos_as_xyz
  1  'x, y, z'
  2  '-x, -y, z'
  3  '-x, y, z'
  4  'x, -y, z'
loop_
 _atom_site_type_symbol
 _atom_site_label
 _atom_site_symmetry_multiplicity
 _atom_site_fract_x
 _atom_site_fract_y
 _atom_site_fract_z
 _atom_site_occupancy
  Ga  Ga0  1  0.00000000  0.00000000  0.08144000  1.0
  Ga  Ga1  1  0.00000000  0.50000000  0.97285000  1.0
  Fe  Fe2  2  0.50000000  0.25000000  0.02715000  1.0
  Fe  Fe3  2  0.50000000  0.25000000  0.91856000  1.0
  Fe  Fe4  1  0.00000000  0.00000000  0.97285000  1.0
  Fe  Fe5  1  0.00000000  0.50000000  0.08144000  1.0
