# generated using pymatgen
data_Li8Si8Ni16C
_symmetry_space_group_name_H-M   'P 1'
_cell_length_a   5.56332000
_cell_length_b   7.86772000
_cell_length_c   25.90080000
_cell_angle_alpha   90.00000000
_cell_angle_beta   90.00000000
_cell_angle_gamma   90.00000000
_symmetry_Int_Tables_number   1
_chemical_formula_structural   Li8Si8Ni16C
_chemical_formula_sum   'Li8 Si8 Ni16 C1'
_cell_volume   1133.69469690
_cell_formula_units_Z   1
loop_
 _symmetry_equiv_pos_site_id
 _symmetry_equiv_pos_as_xyz
  1  'x, y, z'
loop_
 _atom_site_type_symbol
 _atom_site_label
 _atom_site_symmetry_multiplicity
 _atom_site_fract_x
 _atom_site_fract_y
 _atom_site_fract_z
 _atom_site_occupancy
  Li  Li0  1  0.00000000  0.00000000  0.88609000  1.0
  Li  Li1  1  0.50000000  0.24999000  0.96203000  1.0
  Li  Li2  1  0.50000000  0.75001000  0.96203000  1.0
  Li  Li3  1  0.00000000  0.50000000  0.88609000  1.0
  Li  Li4  1  0.00000000  0.50000000  0.03311000  1.0
  Li  Li5  1  0.50000000  0.73130000  0.13954000  1.0
  Li  Li6  1  0.50000000  0.26870000  0.13954000  1.0
  Li  Li7  1  0.00000000  0.00000000  0.03793000  1.0
  Si  Si8  1  0.00000000  0.74999000  0.96203000  1.0
  Si  Si9  1  0.50000000  0.00000000  0.88609000  1.0
  Si  Si10  1  0.00000000  0.25001000  0.96203000  1.0
  Si  Si11  1  0.50000000  0.50000000  0.88609000  1.0
  Si  Si12  1  0.00000000  0.23722000  0.11524000  1.0
  Si  Si13  1  0.50000000  0.50000000  0.04038000  1.0
  Si  Si14  1  0.00000000  0.76278000  0.11524000  1.0
  Si  Si15  1  0.50000000  0.00000000  0.03193000  1.0
  Ni  Ni16  1  0.25000000  0.00000000  0.96203000  1.0
  Ni  Ni17  1  0.75000000  0.50000000  0.96203000  1.0
  Ni  Ni18  1  0.75000000  0.00000000  0.96203000  1.0
  Ni  Ni19  1  0.25000000  0.50000000  0.96203000  1.0
  Ni  Ni20  1  0.75000000  0.74999000  0.88609000  1.0
  Ni  Ni21  1  0.25000000  0.25001000  0.88609000  1.0
  Ni  Ni22  1  0.25000000  0.74999000  0.88609000  1.0
  Ni  Ni23  1  0.75000000  0.25001000  0.88609000  1.0
  Ni  Ni24  1  0.22039000  0.50000000  0.10872000  1.0
  Ni  Ni25  1  0.71116000  0.00000000  0.10687000  1.0
  Ni  Ni26  1  0.77961000  0.50000000  0.10872000  1.0
  Ni  Ni27  1  0.28884000  0.00000000  0.10687000  1.0
  Ni  Ni28  1  0.74603000  0.25196000  0.03954000  1.0
  Ni  Ni29  1  0.25397000  0.74804000  0.03954000  1.0
  Ni  Ni30  1  0.25397000  0.25196000  0.03954000  1.0
  Ni  Ni31  1  0.74603000  0.74804000  0.03954000  1.0
  C  C32  1  0.00000000  0.00000000  0.13965000  1.0
