# generated using pymatgen
data_Li8Si8Ni16C
_symmetry_space_group_name_H-M   Pmm2
_cell_length_a   5.56332000
_cell_length_b   7.86772000
_cell_length_c   25.90080000
_cell_angle_alpha   90.00000000
_cell_angle_beta   90.00000000
_cell_angle_gamma   90.00000000
_symmetry_Int_Tables_number   25
_chemical_formula_structural   Li8Si8Ni16C
_chemical_formula_sum   'Li8 Si8 Ni16 C1'
_cell_volume   1133.69469690
_cell_formula_units_Z   1
loop_
 _symmetry_equiv_pos_site_id
 _symmetry_equiv_pos_as_xyz
  1  'x, y, z'
  2  '-x, -y, z'
  3  '-x, y, z'
  4  'x, -y, z'
loop_
 _atom_site_type_symbol
 _atom_site_label
 _atom_site_symmetry_multiplicity
 _atom_site_fract_x
 _atom_site_fract_y
 _atom_site_fract_z
 _atom_site_occupancy
  Li  Li0  2  0.50000000  0.24999000  0.96203000  1.0
  Li  Li1  2  0.50000000  0.26870000  0.13954000  1.0
  Li  Li2  1  0.00000000  0.00000000  0.03793000  1.0
  Li  Li3  1  0.00000000  0.00000000  0.88609000  1.0
  Li  Li4  1  0.00000000  0.50000000  0.03311000  1.0
  Li  Li5  1  0.00000000  0.50000000  0.88609000  1.0
  Si  Si6  2  0.00000000  0.23722000  0.11524000  1.0
  Si  Si7  2  0.00000000  0.25001000  0.96203000  1.0
  Si  Si8  1  0.50000000  0.00000000  0.03193000  1.0
  Si  Si9  1  0.50000000  0.00000000  0.88609000  1.0
  Si  Si10  1  0.50000000  0.50000000  0.04038000  1.0
  Si  Si11  1  0.50000000  0.50000000  0.88609000  1.0
  Ni  Ni12  4  0.25000000  0.25001000  0.88609000  1.0
  Ni  Ni13  4  0.25397000  0.25196000  0.03954000  1.0
  Ni  Ni14  2  0.22039000  0.50000000  0.10872000  1.0
  Ni  Ni15  2  0.25000000  0.00000000  0.96203000  1.0
  Ni  Ni16  2  0.25000000  0.50000000  0.96203000  1.0
  Ni  Ni17  2  0.28884000  0.00000000  0.10687000  1.0
  C  C18  1  0.00000000  0.00000000  0.13965000  1.0
