# generated using pymatgen
data_Li8Y8Sn8Ge8CO
_symmetry_space_group_name_H-M   Pmm2
_cell_length_a   8.52742000
_cell_length_b   9.43388000
_cell_length_c   26.45610000
_cell_angle_alpha   90.00000000
_cell_angle_beta   90.00000000
_cell_angle_gamma   90.00000000
_symmetry_Int_Tables_number   25
_chemical_formula_structural   Li8Y8Sn8Ge8CO
_chemical_formula_sum   'Li8 Y8 Sn8 Ge8 C1 O1'
_cell_volume   2128.30480198
_cell_formula_units_Z   1
loop_
 _symmetry_equiv_pos_site_id
 _symmetry_equiv_pos_as_xyz
  1  'x, y, z'
  2  '-x, -y, z'
  3  '-x, y, z'
  4  'x, -y, z'
loop_
 _atom_site_type_symbol
 _atom_site_label
 _atom_site_symmetry_multiplicity
 _atom_site_fract_x
 _atom_site_fract_y
 _atom_site_fract_z
 _atom_site_occupancy
  Li  Li0  2  0.00000000  0.25000000  0.87798000  1.0
  Li  Li1  2  0.00000000  0.25044000  0.04167000  1.0
  Li  Li2  2  0.50000000  0.25000000  0.87798000  1.0
  Li  Li3  2  0.50000000  0.25129000  0.04103000  1.0
  Y  Y4  1  0.00000000  0.00000000  0.12169000  1.0
  Y  Y5  1  0.00000000  0.00000000  0.95933000  1.0
  Y  Y6  1  0.00000000  0.50000000  0.12216000  1.0
  Y  Y7  1  0.00000000  0.50000000  0.95933000  1.0
  Y  Y8  1  0.50000000  0.00000000  0.12111000  1.0
  Y  Y9  1  0.50000000  0.00000000  0.95933000  1.0
  Y  Y10  1  0.50000000  0.50000000  0.12220000  1.0
  Y  Y11  1  0.50000000  0.50000000  0.95933000  1.0
  Sn  Sn12  4  0.25000000  0.25000000  0.95933000  1.0
  Sn  Sn13  4  0.25061000  0.25123000  0.12518000  1.0
  Ge  Ge14  2  0.24962000  0.50000000  0.04386000  1.0
  Ge  Ge15  2  0.25000000  0.00000000  0.87798000  1.0
  Ge  Ge16  2  0.25000000  0.50000000  0.87798000  1.0
  Ge  Ge17  2  0.25026000  0.00000000  0.04338000  1.0
  C  C18  1  0.00000000  0.00000000  0.21567000  1.0
  O  O19  1  0.00000000  0.00000000  0.25905000  1.0
