# generated using pymatgen
data_K12Pd4CO
_symmetry_space_group_name_H-M   'P 1'
_cell_length_a   11.07580000
_cell_length_b   7.83179000
_cell_length_c   25.87380000
_cell_angle_alpha   90.00000000
_cell_angle_beta   90.00000000
_cell_angle_gamma   90.00000000
_symmetry_Int_Tables_number   1
_chemical_formula_structural   K12Pd4CO
_chemical_formula_sum   'K12 Pd4 C1 O1'
_cell_volume   2244.37982226
_cell_formula_units_Z   1
loop_
 _symmetry_equiv_pos_site_id
 _symmetry_equiv_pos_as_xyz
  1  'x, y, z'
loop_
 _atom_site_type_symbol
 _atom_site_label
 _atom_site_symmetry_multiplicity
 _atom_site_fract_x
 _atom_site_fract_y
 _atom_site_fract_z
 _atom_site_occupancy
  K  K0  1  0.50000000  0.50001000  0.12992000  1.0
  K  K1  1  0.24179000  0.25239000  0.04265000  1.0
  K  K2  1  0.24179000  0.74762000  0.04265000  1.0
  K  K3  1  0.50000000  0.00000000  0.96216000  1.0
  K  K4  1  0.25002000  0.75000000  0.88649000  1.0
  K  K5  1  0.25002000  0.25000000  0.88649000  1.0
  K  K6  1  0.00000000  0.50000000  0.13302000  1.0
  K  K7  1  0.75821000  0.25239000  0.04265000  1.0
  K  K8  1  0.75821000  0.74762000  0.04265000  1.0
  K  K9  1  0.00000000  0.00000000  0.96216000  1.0
  K  K10  1  0.74998000  0.75000000  0.88649000  1.0
  K  K11  1  0.74998000  0.25000000  0.88649000  1.0
  Pd  Pd12  1  0.50000000  0.00000000  0.10054000  1.0
  Pd  Pd13  1  0.50000000  0.50000000  0.96216000  1.0
  Pd  Pd14  1  0.00000000  0.00000000  0.08557000  1.0
  Pd  Pd15  1  0.00000000  0.50000000  0.96216000  1.0
  C  C16  1  0.50000000  0.99995000  0.17447000  1.0
  O  O17  1  0.50000000  0.00002000  0.21943000  1.0
