# generated using pymatgen
data_K12Pd4CO
_symmetry_space_group_name_H-M   Pm
_cell_length_a   7.83179000
_cell_length_b   11.07580000
_cell_length_c   25.87380000
_cell_angle_alpha   90.00000000
_cell_angle_beta   90.00000000
_cell_angle_gamma   90.00000000
_symmetry_Int_Tables_number   6
_chemical_formula_structural   K12Pd4CO
_chemical_formula_sum   'K12 Pd4 C1 O1'
_cell_volume   2244.37982226
_cell_formula_units_Z   1
loop_
 _symmetry_equiv_pos_site_id
 _symmetry_equiv_pos_as_xyz
  1  'x, y, z'
  2  'x, -y, z'
loop_
 _atom_site_type_symbol
 _atom_site_label
 _atom_site_symmetry_multiplicity
 _atom_site_fract_x
 _atom_site_fract_y
 _atom_site_fract_z
 _atom_site_occupancy
  K  K0  2  0.25000000  0.25002000  0.11351000  1.0
  K  K1  2  0.25239000  0.24179000  0.95735000  1.0
  K  K2  2  0.74762000  0.24179000  0.95735000  1.0
  K  K3  2  0.75000000  0.25002000  0.11351000  1.0
  K  K4  1  0.00000000  0.00000000  0.03784000  1.0
  K  K5  1  0.00000000  0.50000000  0.03784000  1.0
  K  K6  1  0.50000000  0.00000000  0.86698000  1.0
  K  K7  1  0.50001000  0.50000000  0.87008000  1.0
  Pd  Pd8  1  0.00000000  0.00000000  0.91443000  1.0
  Pd  Pd9  1  0.00000000  0.50000000  0.89946000  1.0
  Pd  Pd10  1  0.50000000  0.00000000  0.03784000  1.0
  Pd  Pd11  1  0.50000000  0.50000000  0.03784000  1.0
  C  C12  1  0.99995000  0.50000000  0.82553000  1.0
  O  O13  1  0.00002000  0.50000000  0.78057000  1.0
