# generated using pymatgen
data_Li4Al4Ag4Ge4C
_symmetry_space_group_name_H-M   'P 1'
_cell_length_a   7.71364000
_cell_length_b   5.86609000
_cell_length_c   24.39060000
_cell_angle_alpha   90.00000000
_cell_angle_beta   90.00000000
_cell_angle_gamma   90.00000000
_symmetry_Int_Tables_number   1
_chemical_formula_structural   Li4Al4Ag4Ge4C
_chemical_formula_sum   'Li4 Al4 Ag4 Ge4 C1'
_cell_volume   1103.64797809
_cell_formula_units_Z   1
loop_
 _symmetry_equiv_pos_site_id
 _symmetry_equiv_pos_as_xyz
  1  'x, y, z'
loop_
 _atom_site_type_symbol
 _atom_site_label
 _atom_site_symmetry_multiplicity
 _atom_site_fract_x
 _atom_site_fract_y
 _atom_site_fract_z
 _atom_site_occupancy
  Li  Li0  1  0.74998000  0.76592000  0.97000000  1.0
  Li  Li1  1  0.80247000  0.26290000  0.10477000  1.0
  Li  Li2  1  0.25002000  0.76592000  0.97000000  1.0
  Li  Li3  1  0.19753000  0.26290000  0.10477000  1.0
  Al  Al4  1  0.74998000  0.26592000  0.97000000  1.0
  Al  Al5  1  0.79358000  0.79665000  0.09167000  1.0
  Al  Al6  1  0.25002000  0.26592000  0.97000000  1.0
  Al  Al7  1  0.20642000  0.79665000  0.09167000  1.0
  Ag  Ag8  1  0.00000000  0.00000000  0.90999000  1.0
  Ag  Ag9  1  0.00000000  0.52749000  0.02826000  1.0
  Ag  Ag10  1  0.50000000  0.00000000  0.90999000  1.0
  Ag  Ag11  1  0.50000000  0.50178000  0.03638000  1.0
  Ge  Ge12  1  0.00000000  0.50000000  0.90999000  1.0
  Ge  Ge13  1  0.00000000  0.04831000  0.02136000  1.0
  Ge  Ge14  1  0.50000000  0.50000000  0.90999000  1.0
  Ge  Ge15  1  0.50000000  0.00745000  0.06035000  1.0
  C  C16  1  0.00000000  0.00111000  0.10469000  1.0
