# generated using pymatgen
data_Nb8Ni16Sn8C
_symmetry_space_group_name_H-M   'P 1'
_cell_length_a   8.81715000
_cell_length_b   6.23466000
_cell_length_c   26.61290000
_cell_angle_alpha   90.00000000
_cell_angle_beta   90.00000000
_cell_angle_gamma   90.00000000
_symmetry_Int_Tables_number   1
_chemical_formula_structural   Nb8Ni16Sn8C
_chemical_formula_sum   'Nb8 Ni16 Sn8 C1'
_cell_volume   1462.96254027
_cell_formula_units_Z   1
loop_
 _symmetry_equiv_pos_site_id
 _symmetry_equiv_pos_as_xyz
  1  'x, y, z'
loop_
 _atom_site_type_symbol
 _atom_site_label
 _atom_site_symmetry_multiplicity
 _atom_site_fract_x
 _atom_site_fract_y
 _atom_site_fract_z
 _atom_site_occupancy
  Nb  Nb0  1  0.00000000  0.00000000  0.12424000  1.0
  Nb  Nb1  1  0.25000000  0.50000000  0.04141000  1.0
  Nb  Nb2  1  0.75000000  0.50000000  0.04141000  1.0
  Nb  Nb3  1  0.50000000  0.00000000  0.12424000  1.0
  Nb  Nb4  1  0.49997000  0.00000000  0.95731000  1.0
  Nb  Nb5  1  0.74941000  0.50000000  0.88189000  1.0
  Nb  Nb6  1  0.25060000  0.50000000  0.88186000  1.0
  Nb  Nb7  1  0.00001000  0.00000000  0.95049000  1.0
  Ni  Ni8  1  0.00000000  0.74999000  0.04141000  1.0
  Ni  Ni9  1  0.50000000  0.24999000  0.04141000  1.0
  Ni  Ni10  1  0.00000000  0.25001000  0.04141000  1.0
  Ni  Ni11  1  0.50000000  0.75001000  0.04141000  1.0
  Ni  Ni12  1  0.75000000  0.24999000  0.12424000  1.0
  Ni  Ni13  1  0.25000000  0.74999000  0.12424000  1.0
  Ni  Ni14  1  0.75000000  0.75001000  0.12424000  1.0
  Ni  Ni15  1  0.25000000  0.25001000  0.12424000  1.0
  Ni  Ni16  1  0.49999000  0.71926000  0.88062000  1.0
  Ni  Ni17  1  0.00001000  0.29487000  0.86853000  1.0
  Ni  Ni18  1  0.49999000  0.28074000  0.88062000  1.0
  Ni  Ni19  1  0.00001000  0.70513000  0.86853000  1.0
  Ni  Ni20  1  0.25663000  0.22915000  0.95581000  1.0
  Ni  Ni21  1  0.74339000  0.77101000  0.95578000  1.0
  Ni  Ni22  1  0.25663000  0.77085000  0.95581000  1.0
  Ni  Ni23  1  0.74339000  0.22899000  0.95578000  1.0
  Sn  Sn24  1  0.75000000  0.00000000  0.04141000  1.0
  Sn  Sn25  1  0.00000000  0.50000000  0.12424000  1.0
  Sn  Sn26  1  0.25000000  0.00000000  0.04141000  1.0
  Sn  Sn27  1  0.50000000  0.50000000  0.12424000  1.0
  Sn  Sn28  1  0.26910000  0.00000000  0.85828000  1.0
  Sn  Sn29  1  0.50002000  0.50000000  0.96303000  1.0
  Sn  Sn30  1  0.73089000  0.00000000  0.85828000  1.0
  Sn  Sn31  1  0.00000000  0.50000000  0.95965000  1.0
  C  C32  1  0.00000000  0.00000000  0.87272000  1.0
