# generated using pymatgen
data_Nb8Ni16Sn8C
_symmetry_space_group_name_H-M   Pm
_cell_length_a   8.81715000
_cell_length_b   6.23466000
_cell_length_c   26.61290000
_cell_angle_alpha   90.00000000
_cell_angle_beta   90.00000000
_cell_angle_gamma   90.00000000
_symmetry_Int_Tables_number   6
_chemical_formula_structural   Nb8Ni16Sn8C
_chemical_formula_sum   'Nb8 Ni16 Sn8 C1'
_cell_volume   1462.96254027
_cell_formula_units_Z   1
loop_
 _symmetry_equiv_pos_site_id
 _symmetry_equiv_pos_as_xyz
  1  'x, y, z'
  2  'x, -y, z'
loop_
 _atom_site_type_symbol
 _atom_site_label
 _atom_site_symmetry_multiplicity
 _atom_site_fract_x
 _atom_site_fract_y
 _atom_site_fract_z
 _atom_site_occupancy
  Nb  Nb0  1  0.00000000  0.00000000  0.87576000  1.0
  Nb  Nb1  1  0.00001000  0.00000000  0.04951000  1.0
  Nb  Nb2  1  0.25000000  0.50000000  0.95859000  1.0
  Nb  Nb3  1  0.25060000  0.50000000  0.11814000  1.0
  Nb  Nb4  1  0.49997000  0.00000000  0.04269000  1.0
  Nb  Nb5  1  0.50000000  0.00000000  0.87576000  1.0
  Nb  Nb6  1  0.74941000  0.50000000  0.11811000  1.0
  Nb  Nb7  1  0.75000000  0.50000000  0.95859000  1.0
  Ni  Ni8  2  0.00000000  0.25001000  0.95859000  1.0
  Ni  Ni9  2  0.00001000  0.29487000  0.13147000  1.0
  Ni  Ni10  2  0.25000000  0.25001000  0.87576000  1.0
  Ni  Ni11  2  0.25663000  0.22915000  0.04419000  1.0
  Ni  Ni12  2  0.49999000  0.28074000  0.11938000  1.0
  Ni  Ni13  2  0.50000000  0.24999000  0.95859000  1.0
  Ni  Ni14  2  0.74339000  0.22899000  0.04422000  1.0
  Ni  Ni15  2  0.75000000  0.24999000  0.87576000  1.0
  Sn  Sn16  1  0.00000000  0.50000000  0.04035000  1.0
  Sn  Sn17  1  0.00000000  0.50000000  0.87576000  1.0
  Sn  Sn18  1  0.25000000  0.00000000  0.95859000  1.0
  Sn  Sn19  1  0.26910000  0.00000000  0.14172000  1.0
  Sn  Sn20  1  0.50000000  0.50000000  0.87576000  1.0
  Sn  Sn21  1  0.50002000  0.50000000  0.03697000  1.0
  Sn  Sn22  1  0.73089000  0.00000000  0.14172000  1.0
  Sn  Sn23  1  0.75000000  0.00000000  0.95859000  1.0
  C  C24  1  0.00000000  0.00000000  0.12728000  1.0
