# generated using pymatgen
data_Y8Cu8Sn8Pd8C
_symmetry_space_group_name_H-M   'P 1'
_cell_length_a   9.56710000
_cell_length_b   6.76496000
_cell_length_c   27.17530000
_cell_angle_alpha   90.00000000
_cell_angle_beta   90.00000000
_cell_angle_gamma   90.00000000
_symmetry_Int_Tables_number   1
_chemical_formula_structural   Y8Cu8Sn8Pd8C
_chemical_formula_sum   'Y8 Cu8 Sn8 Pd8 C1'
_cell_volume   1758.81391789
_cell_formula_units_Z   1
loop_
 _symmetry_equiv_pos_site_id
 _symmetry_equiv_pos_as_xyz
  1  'x, y, z'
loop_
 _atom_site_type_symbol
 _atom_site_label
 _atom_site_symmetry_multiplicity
 _atom_site_fract_x
 _atom_site_fract_y
 _atom_site_fract_z
 _atom_site_occupancy
  Y  Y0  1  0.00000000  0.25000000  0.04401000  1.0
  Y  Y1  1  0.50000000  0.25000000  0.04401000  1.0
  Y  Y2  1  0.25000000  0.75000000  0.13202000  1.0
  Y  Y3  1  0.75000000  0.75000000  0.13202000  1.0
  Y  Y4  1  0.50000000  0.23928000  0.86197000  1.0
  Y  Y5  1  0.00000000  0.27965000  0.86887000  1.0
  Y  Y6  1  0.73997000  0.74554000  0.95790000  1.0
  Y  Y7  1  0.26003000  0.74554000  0.95790000  1.0
  Cu  Cu8  1  0.00000000  0.00000000  0.13202000  1.0
  Cu  Cu9  1  0.50000000  1.00000000  0.13202000  1.0
  Cu  Cu10  1  0.75000000  0.50000000  0.04401000  1.0
  Cu  Cu11  1  0.25000000  0.50000000  0.04401000  1.0
  Cu  Cu12  1  0.50000000  0.02111000  0.95188000  1.0
  Cu  Cu13  1  0.00000000  0.94324000  0.93890000  1.0
  Cu  Cu14  1  0.25953000  0.52604000  0.86725000  1.0
  Cu  Cu15  1  0.74047000  0.52604000  0.86725000  1.0
  Sn  Sn16  1  0.00000000  0.75000000  0.04401000  1.0
  Sn  Sn17  1  0.50000000  0.75000000  0.04401000  1.0
  Sn  Sn18  1  0.25000000  0.25000000  0.13202000  1.0
  Sn  Sn19  1  0.75000000  0.25000000  0.13202000  1.0
  Sn  Sn20  1  0.50000000  0.75848000  0.86643000  1.0
  Sn  Sn21  1  0.00000000  0.68323000  0.83067000  1.0
  Sn  Sn22  1  0.75559000  0.24837000  0.95366000  1.0
  Sn  Sn23  1  0.24441000  0.24837000  0.95366000  1.0
  Pd  Pd24  1  0.25000000  0.00000000  0.04401000  1.0
  Pd  Pd25  1  0.75000000  0.00000000  0.04401000  1.0
  Pd  Pd26  1  0.50000000  0.50000000  0.13202000  1.0
  Pd  Pd27  1  0.00000000  0.50000000  0.13202000  1.0
  Pd  Pd28  1  0.76096000  0.96493000  0.87107000  1.0
  Pd  Pd29  1  0.23904000  0.96493000  0.87107000  1.0
  Pd  Pd30  1  0.00000000  0.52050000  0.95657000  1.0
  Pd  Pd31  1  0.50000000  0.46456000  0.94984000  1.0
  C  C32  1  0.00000000  0.95863000  0.86473000  1.0
