# generated using pymatgen
data_Y8Cu8Sn8Pd8C
_symmetry_space_group_name_H-M   Pm
_cell_length_a   6.76496000
_cell_length_b   9.56710000
_cell_length_c   27.17530000
_cell_angle_alpha   90.00000000
_cell_angle_beta   90.00000000
_cell_angle_gamma   90.00000000
_symmetry_Int_Tables_number   6
_chemical_formula_structural   Y8Cu8Sn8Pd8C
_chemical_formula_sum   'Y8 Cu8 Sn8 Pd8 C1'
_cell_volume   1758.81391789
_cell_formula_units_Z   1
loop_
 _symmetry_equiv_pos_site_id
 _symmetry_equiv_pos_as_xyz
  1  'x, y, z'
  2  'x, -y, z'
loop_
 _atom_site_type_symbol
 _atom_site_label
 _atom_site_symmetry_multiplicity
 _atom_site_fract_x
 _atom_site_fract_y
 _atom_site_fract_z
 _atom_site_occupancy
  Y  Y0  2  0.74554000  0.26003000  0.04210000  1.0
  Y  Y1  2  0.75000000  0.25000000  0.86798000  1.0
  Y  Y2  1  0.23928000  0.50000000  0.13803000  1.0
  Y  Y3  1  0.25000000  0.00000000  0.95599000  1.0
  Y  Y4  1  0.25000000  0.50000000  0.95599000  1.0
  Y  Y5  1  0.27965000  0.00000000  0.13113000  1.0
  Cu  Cu6  2  0.50000000  0.25000000  0.95599000  1.0
  Cu  Cu7  2  0.52604000  0.25953000  0.13275000  1.0
  Cu  Cu8  1  -0.00000000  0.50000000  0.86798000  1.0
  Cu  Cu9  1  0.00000000  0.00000000  0.86798000  1.0
  Cu  Cu10  1  0.02111000  0.50000000  0.04812000  1.0
  Cu  Cu11  1  0.94324000  0.00000000  0.06110000  1.0
  Sn  Sn12  2  0.24837000  0.24441000  0.04634000  1.0
  Sn  Sn13  2  0.25000000  0.25000000  0.86798000  1.0
  Sn  Sn14  1  0.68323000  0.00000000  0.16933000  1.0
  Sn  Sn15  1  0.75000000  0.00000000  0.95599000  1.0
  Sn  Sn16  1  0.75000000  0.50000000  0.95599000  1.0
  Sn  Sn17  1  0.75848000  0.50000000  0.13357000  1.0
  Pd  Pd18  2  0.00000000  0.25000000  0.95599000  1.0
  Pd  Pd19  2  0.96493000  0.23904000  0.12893000  1.0
  Pd  Pd20  1  0.46456000  0.50000000  0.05016000  1.0
  Pd  Pd21  1  0.50000000  0.00000000  0.86798000  1.0
  Pd  Pd22  1  0.50000000  0.50000000  0.86798000  1.0
  Pd  Pd23  1  0.52050000  0.00000000  0.04343000  1.0
  C  C24  1  0.95863000  0.00000000  0.13527000  1.0
