# generated using pymatgen
data_Ti16Pd16CO
_symmetry_space_group_name_H-M   'P 1'
_cell_length_a   6.37073000
_cell_length_b   9.00957000
_cell_length_c   26.75720000
_cell_angle_alpha   90.00000000
_cell_angle_beta   90.00000000
_cell_angle_gamma   90.00000000
_symmetry_Int_Tables_number   1
_chemical_formula_structural   Ti16Pd16CO
_chemical_formula_sum   'Ti16 Pd16 C1 O1'
_cell_volume   1535.79740073
_cell_formula_units_Z   1
loop_
 _symmetry_equiv_pos_site_id
 _symmetry_equiv_pos_as_xyz
  1  'x, y, z'
loop_
 _atom_site_type_symbol
 _atom_site_label
 _atom_site_symmetry_multiplicity
 _atom_site_fract_x
 _atom_site_fract_y
 _atom_site_fract_z
 _atom_site_occupancy
  Ti  Ti0  1  0.00000000  0.25000000  0.87373000  1.0
  Ti  Ti1  1  0.00000000  0.00000000  0.95791000  1.0
  Ti  Ti2  1  0.00000000  0.23851000  0.04015000  1.0
  Ti  Ti3  1  0.00000000  0.00000000  0.12741000  1.0
  Ti  Ti4  1  0.00000000  0.75000000  0.87373000  1.0
  Ti  Ti5  1  0.00000000  0.50000000  0.95791000  1.0
  Ti  Ti6  1  0.00000000  0.76149000  0.04015000  1.0
  Ti  Ti7  1  0.00000000  0.50000000  0.12930000  1.0
  Ti  Ti8  1  0.50000000  0.25000000  0.87373000  1.0
  Ti  Ti9  1  0.50000000  0.00000000  0.95791000  1.0
  Ti  Ti10  1  0.50000000  0.26069000  0.04014000  1.0
  Ti  Ti11  1  0.50000000  0.00000000  0.13097000  1.0
  Ti  Ti12  1  0.50000000  0.75000000  0.87373000  1.0
  Ti  Ti13  1  0.50000000  0.50000000  0.95791000  1.0
  Ti  Ti14  1  0.50000000  0.73931000  0.04014000  1.0
  Ti  Ti15  1  0.50000000  0.50000000  0.12219000  1.0
  Pd  Pd16  1  0.75000000  0.00000000  0.87373000  1.0
  Pd  Pd17  1  0.75000000  0.25000000  0.95791000  1.0
  Pd  Pd18  1  0.72332000  0.00000000  0.04613000  1.0
  Pd  Pd19  1  0.75032000  0.25064000  0.11985000  1.0
  Pd  Pd20  1  0.75000000  0.50000000  0.87373000  1.0
  Pd  Pd21  1  0.75000000  0.75000000  0.95791000  1.0
  Pd  Pd22  1  0.77971000  0.50000000  0.04465000  1.0
  Pd  Pd23  1  0.75032000  0.74936000  0.11985000  1.0
  Pd  Pd24  1  0.25000000  0.00000000  0.87373000  1.0
  Pd  Pd25  1  0.25000000  0.25000000  0.95791000  1.0
  Pd  Pd26  1  0.27668000  0.00000000  0.04613000  1.0
  Pd  Pd27  1  0.24968000  0.25064000  0.11985000  1.0
  Pd  Pd28  1  0.25000000  0.50000000  0.87373000  1.0
  Pd  Pd29  1  0.25000000  0.75000000  0.95791000  1.0
  Pd  Pd30  1  0.22029000  0.50000000  0.04465000  1.0
  Pd  Pd31  1  0.24968000  0.74936000  0.11985000  1.0
  C  C32  1  0.00000000  0.00000000  0.20580000  1.0
  O  O33  1  0.00000000  0.00000000  0.24905000  1.0
