# generated using pymatgen
data_Ti16Pd16CO
_symmetry_space_group_name_H-M   Pmm2
_cell_length_a   6.37073000
_cell_length_b   9.00957000
_cell_length_c   26.75720000
_cell_angle_alpha   90.00000000
_cell_angle_beta   90.00000000
_cell_angle_gamma   90.00000000
_symmetry_Int_Tables_number   25
_chemical_formula_structural   Ti16Pd16CO
_chemical_formula_sum   'Ti16 Pd16 C1 O1'
_cell_volume   1535.79740073
_cell_formula_units_Z   1
loop_
 _symmetry_equiv_pos_site_id
 _symmetry_equiv_pos_as_xyz
  1  'x, y, z'
  2  '-x, -y, z'
  3  '-x, y, z'
  4  'x, -y, z'
loop_
 _atom_site_type_symbol
 _atom_site_label
 _atom_site_symmetry_multiplicity
 _atom_site_fract_x
 _atom_site_fract_y
 _atom_site_fract_z
 _atom_site_occupancy
  Ti  Ti0  2  0.00000000  0.23851000  0.04015000  1.0
  Ti  Ti1  2  0.00000000  0.25000000  0.87373000  1.0
  Ti  Ti2  2  0.50000000  0.25000000  0.87373000  1.0
  Ti  Ti3  2  0.50000000  0.26069000  0.04014000  1.0
  Ti  Ti4  1  0.00000000  0.00000000  0.12741000  1.0
  Ti  Ti5  1  0.00000000  0.00000000  0.95791000  1.0
  Ti  Ti6  1  0.00000000  0.50000000  0.12930000  1.0
  Ti  Ti7  1  0.00000000  0.50000000  0.95791000  1.0
  Ti  Ti8  1  0.50000000  0.00000000  0.13097000  1.0
  Ti  Ti9  1  0.50000000  0.00000000  0.95791000  1.0
  Ti  Ti10  1  0.50000000  0.50000000  0.12219000  1.0
  Ti  Ti11  1  0.50000000  0.50000000  0.95791000  1.0
  Pd  Pd12  4  0.24968000  0.25064000  0.11985000  1.0
  Pd  Pd13  4  0.25000000  0.25000000  0.95791000  1.0
  Pd  Pd14  2  0.22029000  0.50000000  0.04465000  1.0
  Pd  Pd15  2  0.25000000  0.00000000  0.87373000  1.0
  Pd  Pd16  2  0.25000000  0.50000000  0.87373000  1.0
  Pd  Pd17  2  0.27668000  0.00000000  0.04613000  1.0
  C  C18  1  0.00000000  0.00000000  0.20580000  1.0
  O  O19  1  0.00000000  0.00000000  0.24905000  1.0
