data_image0
_chemical_formula_structural       Y8Mg8In8Pd8CO
_chemical_formula_sum              "Y8 Mg8 In8 Pd8 C1 O1"
_cell_length_a       6.99626
_cell_length_b       9.8942
_cell_length_c       27.4207
_cell_angle_alpha    90
_cell_angle_beta     90
_cell_angle_gamma    90

_space_group_name_H-M_alt    "P 1"
_space_group_IT_number       1

loop_
  _space_group_symop_operation_xyz
  'x, y, z'

loop_
  _atom_site_type_symbol
  _atom_site_label
  _atom_site_symmetry_multiplicity
  _atom_site_fract_x
  _atom_site_fract_y
  _atom_site_fract_z
  _atom_site_occupancy
  Y   Y1        1.0  0.75000  0.00000  0.95490  1.0000
  Y   Y2        1.0  0.75000  0.50000  0.95490  1.0000
  Y   Y3        1.0  0.25000  0.25000  0.86469  1.0000
  Y   Y4        1.0  0.25000  0.75000  0.86469  1.0000
  Y   Y5        1.0  0.74166  0.49993  0.14218  1.0000
  Y   Y6        1.0  0.73982  0.00011  0.14255  1.0000
  Y   Y7        1.0  0.25647  0.74969  0.04644  1.0000
  Y   Y8        1.0  0.25650  0.25031  0.04644  1.0000
  Mg  Mg1       1.0  0.25000  0.00000  0.95490  1.0000
  Mg  Mg2       1.0  0.25000  0.50000  0.95490  1.0000
  Mg  Mg3       1.0  0.75000  0.25000  0.86469  1.0000
  Mg  Mg4       1.0  0.75000  0.75000  0.86469  1.0000
  Mg  Mg5       1.0  0.24530  0.50013  0.13344  1.0000
  Mg  Mg6       1.0  0.24066  0.99991  0.13524  1.0000
  Mg  Mg7       1.0  0.73662  0.75153  0.05006  1.0000
  Mg  Mg8       1.0  0.73673  0.24852  0.05006  1.0000
  In  In1       1.0  0.00000  0.00000  0.86469  1.0000
  In  In2       1.0  0.00000  0.50000  0.86469  1.0000
  In  In3       1.0  0.50000  0.75000  0.95490  1.0000
  In  In4       1.0  0.50000  0.25000  0.95490  1.0000
  In  In5       1.0  0.98394  0.49999  0.04792  1.0000
  In  In6       1.0  0.98614  0.00003  0.04888  1.0000
  In  In7       1.0  0.46638  0.24916  0.15461  1.0000
  In  In8       1.0  0.46671  0.75088  0.15456  1.0000
  Pd  Pd1       1.0  0.00000  0.25000  0.95490  1.0000
  Pd  Pd2       1.0  0.00000  0.75000  0.95490  1.0000
  Pd  Pd3       1.0  0.50000  0.50000  0.86469  1.0000
  Pd  Pd4       1.0  0.50000  0.00000  0.86469  1.0000
  Pd  Pd5       1.0  0.00519  0.74181  0.12480  1.0000
  Pd  Pd6       1.0  0.00537  0.25823  0.12482  1.0000
  Pd  Pd7       1.0  0.51353  0.00001  0.04949  1.0000
  Pd  Pd8       1.0  0.52280  0.50000  0.04898  1.0000
  C   C1        1.0  0.06640  0.99993  0.20120  1.0000
  O   O1        1.0  0.96545  0.99998  0.23537  1.0000
