# generated using pymatgen
data_Y8Mg8In8Pd8CO
_symmetry_space_group_name_H-M   P1
_cell_length_a   6.99626000
_cell_length_b   9.89420000
_cell_length_c   27.42070000
_cell_angle_alpha   90.00000000
_cell_angle_beta   90.00000000
_cell_angle_gamma   90.00000000
_symmetry_Int_Tables_number   1
_chemical_formula_structural   Y8Mg8In8Pd8CO
_chemical_formula_sum   'Y8 Mg8 In8 Pd8 C1 O1'
_cell_volume   1898.12654555
_cell_formula_units_Z   1
loop_
 _symmetry_equiv_pos_site_id
 _symmetry_equiv_pos_as_xyz
  1  'x, y, z'
loop_
 _atom_site_type_symbol
 _atom_site_label
 _atom_site_symmetry_multiplicity
 _atom_site_fract_x
 _atom_site_fract_y
 _atom_site_fract_z
 _atom_site_occupancy
  Y  Y0  1  0.25000000  0.25000000  0.86469000  1.0
  Y  Y1  1  0.25000000  0.75000000  0.86469000  1.0
  Y  Y2  1  0.25493000  0.75142000  0.04613000  1.0
  Y  Y3  1  0.25505000  0.24861000  0.04614000  1.0
  Y  Y4  1  0.73926000  0.00038000  0.14585000  1.0
  Y  Y5  1  0.74520000  0.49977000  0.14158000  1.0
  Y  Y6  1  0.75000000  0.00000000  0.95490000  1.0
  Y  Y7  1  0.75000000  0.50000000  0.95490000  1.0
  Mg  Mg8  1  0.24364000  0.50035000  0.13406000  1.0
  Mg  Mg9  1  0.25000000  0.00000000  0.95490000  1.0
  Mg  Mg10  1  0.25000000  0.50000000  0.95490000  1.0
  Mg  Mg11  1  0.25166000  0.99979000  0.13432000  1.0
  Mg  Mg12  1  0.73433000  0.74859000  0.05071000  1.0
  Mg  Mg13  1  0.73435000  0.25146000  0.05074000  1.0
  Mg  Mg14  1  0.75000000  0.25000000  0.86469000  1.0
  Mg  Mg15  1  0.75000000  0.75000000  0.86469000  1.0
  In  In16  1  0.00000000  0.00000000  0.86469000  1.0
  In  In17  1  0.00000000  0.50000000  0.86469000  1.0
  In  In18  1  0.46612000  0.25301000  0.15334000  1.0
  In  In19  1  0.46739000  0.74713000  0.15319000  1.0
  In  In20  1  0.50000000  0.25000000  0.95490000  1.0
  In  In21  1  0.50000000  0.75000000  0.95490000  1.0
  In  In22  1  0.97994000  0.00005000  0.05065000  1.0
  In  In23  1  0.98696000  0.50001000  0.04803000  1.0
  Pd  Pd24  1  0.00000000  0.25000000  0.95490000  1.0
  Pd  Pd25  1  0.00000000  0.75000000  0.95490000  1.0
  Pd  Pd26  1  0.00716000  0.74397000  0.12503000  1.0
  Pd  Pd27  1  0.00775000  0.25610000  0.12505000  1.0
  Pd  Pd28  1  0.50000000  0.00000000  0.86469000  1.0
  Pd  Pd29  1  0.50000000  0.50000000  0.86469000  1.0
  Pd  Pd30  1  0.51636000  0.99998000  0.04882000  1.0
  Pd  Pd31  1  0.51731000  0.50005000  0.04936000  1.0
  C  C32  1  0.06494000  0.99962000  0.19720000  1.0
  O  O33  1  0.93000000  0.99991000  0.22361000  1.0
