data_image0
_chemical_formula_structural       Y8Pd16Pb8CO
_chemical_formula_sum              "Y8 Pd16 Pb8 C1 O1"
_cell_length_a       6.95998
_cell_length_b       9.84289
_cell_length_c       27.3822
_cell_angle_alpha    90
_cell_angle_beta     90
_cell_angle_gamma    90

_space_group_name_H-M_alt    "P 1"
_space_group_IT_number       1

loop_
  _space_group_symop_operation_xyz
  'x, y, z'

loop_
  _atom_site_type_symbol
  _atom_site_label
  _atom_site_symmetry_multiplicity
  _atom_site_fract_x
  _atom_site_fract_y
  _atom_site_fract_z
  _atom_site_occupancy
  Y   Y1        1.0  0.00000  0.00000  0.86520  1.0000
  Y   Y2        1.0  0.50000  0.25000  0.95507  1.0000
  Y   Y3        1.0  0.50000  0.75000  0.95507  1.0000
  Y   Y4        1.0  0.00000  0.50000  0.86520  1.0000
  Y   Y5        1.0  0.00000  0.50228  0.04660  1.0000
  Y   Y6        1.0  0.50000  0.75000  0.13351  1.0000
  Y   Y7        1.0  0.50000  0.25000  0.13168  1.0000
  Y   Y8        1.0  1.00000  0.99772  0.04660  1.0000
  Pd  Pd1       1.0  0.25000  0.00000  0.95507  1.0000
  Pd  Pd2       1.0  0.75000  0.50000  0.95507  1.0000
  Pd  Pd3       1.0  0.75000  0.00000  0.95507  1.0000
  Pd  Pd4       1.0  0.25000  0.50000  0.95507  1.0000
  Pd  Pd5       1.0  0.75000  0.75000  0.86520  1.0000
  Pd  Pd6       1.0  0.25000  0.25000  0.86520  1.0000
  Pd  Pd7       1.0  0.25000  0.75000  0.86520  1.0000
  Pd  Pd8       1.0  0.75000  0.25000  0.86520  1.0000
  Pd  Pd9       1.0  0.24932  0.50201  0.12998  1.0000
  Pd  Pd10      1.0  0.75068  0.99799  0.12998  1.0000
  Pd  Pd11      1.0  0.75068  0.50201  0.12998  1.0000
  Pd  Pd12      1.0  0.24932  0.99799  0.12998  1.0000
  Pd  Pd13      1.0  0.76523  0.25000  0.04770  1.0000
  Pd  Pd14      1.0  0.24851  0.75000  0.04899  1.0000
  Pd  Pd15      1.0  0.23477  0.25000  0.04770  1.0000
  Pd  Pd16      1.0  0.75149  0.75000  0.04899  1.0000
  Pb  Pb1       1.0  0.00000  0.75000  0.95507  1.0000
  Pb  Pb2       1.0  0.50000  0.00000  0.86520  1.0000
  Pb  Pb3       1.0  0.00000  0.25000  0.95507  1.0000
  Pb  Pb4       1.0  0.50000  0.50000  0.86520  1.0000
  Pb  Pb5       1.0  0.00000  0.25000  0.14398  1.0000
  Pb  Pb6       1.0  0.50000  0.49850  0.04424  1.0000
  Pb  Pb7       1.0  0.00000  0.75000  0.14355  1.0000
  Pb  Pb8       1.0  0.50000  0.00150  0.04424  1.0000
  C   C1        1.0  0.50000  0.25000  0.22516  1.0000
  O   O1        1.0  0.50000  0.25000  0.26689  1.0000
