# generated using pymatgen
data_Y8Pd16Pb8CO
_symmetry_space_group_name_H-M   'P 1'
_cell_length_a   6.95998000
_cell_length_b   9.84289000
_cell_length_c   27.38220000
_cell_angle_alpha   90.00000000
_cell_angle_beta   90.00000000
_cell_angle_gamma   90.00000000
_symmetry_Int_Tables_number   1
_chemical_formula_structural   Y8Pd16Pb8CO
_chemical_formula_sum   'Y8 Pd16 Pb8 C1 O1'
_cell_volume   1875.85368820
_cell_formula_units_Z   1
loop_
 _symmetry_equiv_pos_site_id
 _symmetry_equiv_pos_as_xyz
  1  'x, y, z'
loop_
 _atom_site_type_symbol
 _atom_site_label
 _atom_site_symmetry_multiplicity
 _atom_site_fract_x
 _atom_site_fract_y
 _atom_site_fract_z
 _atom_site_occupancy
  Y  Y0  1  0.00000000  0.75000000  0.86520000  1.0
  Y  Y1  1  0.50000000  0.00000000  0.95507000  1.0
  Y  Y2  1  0.50000000  0.50000000  0.95507000  1.0
  Y  Y3  1  0.00000000  0.25000000  0.86520000  1.0
  Y  Y4  1  0.00000000  0.25228000  0.04660000  1.0
  Y  Y5  1  0.50000000  0.50000000  0.13351000  1.0
  Y  Y6  1  0.50000000  0.00000000  0.13168000  1.0
  Y  Y7  1  0.00000000  0.74772000  0.04660000  1.0
  Pd  Pd8  1  0.25000000  0.75000000  0.95507000  1.0
  Pd  Pd9  1  0.75000000  0.25000000  0.95507000  1.0
  Pd  Pd10  1  0.75000000  0.75000000  0.95507000  1.0
  Pd  Pd11  1  0.25000000  0.25000000  0.95507000  1.0
  Pd  Pd12  1  0.75000000  0.50000000  0.86520000  1.0
  Pd  Pd13  1  0.25000000  0.00000000  0.86520000  1.0
  Pd  Pd14  1  0.25000000  0.50000000  0.86520000  1.0
  Pd  Pd15  1  0.75000000  0.00000000  0.86520000  1.0
  Pd  Pd16  1  0.24932000  0.25201000  0.12998000  1.0
  Pd  Pd17  1  0.75068000  0.74799000  0.12998000  1.0
  Pd  Pd18  1  0.75068000  0.25201000  0.12998000  1.0
  Pd  Pd19  1  0.24932000  0.74799000  0.12998000  1.0
  Pd  Pd20  1  0.76523000  0.00000000  0.04770000  1.0
  Pd  Pd21  1  0.24851000  0.50000000  0.04899000  1.0
  Pd  Pd22  1  0.23477000  0.00000000  0.04770000  1.0
  Pd  Pd23  1  0.75149000  0.50000000  0.04899000  1.0
  Pb  Pb24  1  0.00000000  0.50000000  0.95507000  1.0
  Pb  Pb25  1  0.50000000  0.75000000  0.86520000  1.0
  Pb  Pb26  1  0.00000000  0.00000000  0.95507000  1.0
  Pb  Pb27  1  0.50000000  0.25000000  0.86520000  1.0
  Pb  Pb28  1  0.00000000  0.00000000  0.14398000  1.0
  Pb  Pb29  1  0.50000000  0.24850000  0.04424000  1.0
  Pb  Pb30  1  0.00000000  0.50000000  0.14355000  1.0
  Pb  Pb31  1  0.50000000  0.75150000  0.04424000  1.0
  C  C32  1  0.50000000  0.00000000  0.22516000  1.0
  O  O33  1  0.50000000  0.00000000  0.26689000  1.0
