# generated using pymatgen
data_Sc8Ga8Ni16CO
_symmetry_space_group_name_H-M   Pmm2
_cell_length_a   6.06833000
_cell_length_b   8.58191000
_cell_length_c   26.43640000
_cell_angle_alpha   90.00000000
_cell_angle_beta   90.00000000
_cell_angle_gamma   90.00000000
_symmetry_Int_Tables_number   25
_chemical_formula_structural   Sc8Ga8Ni16CO
_chemical_formula_sum   'Sc8 Ga8 Ni16 C1 O1'
_cell_volume   1376.75118861
_cell_formula_units_Z   1
loop_
 _symmetry_equiv_pos_site_id
 _symmetry_equiv_pos_as_xyz
  1  'x, y, z'
  2  '-x, -y, z'
  3  '-x, y, z'
  4  'x, -y, z'
loop_
 _atom_site_type_symbol
 _atom_site_label
 _atom_site_symmetry_multiplicity
 _atom_site_fract_x
 _atom_site_fract_y
 _atom_site_fract_z
 _atom_site_occupancy
  Sc  Sc0  2  0.00000000  0.25000000  0.87827000  1.0
  Sc  Sc1  2  0.00000000  0.25164000  0.03862000  1.0
  Sc  Sc2  1  0.50000000  0.00000000  0.12557000  1.0
  Sc  Sc3  1  0.50000000  0.00000000  0.95942000  1.0
  Sc  Sc4  1  0.50000000  0.50000000  0.12626000  1.0
  Sc  Sc5  1  0.50000000  0.50000000  0.95942000  1.0
  Ga  Ga6  2  0.50000000  0.24885000  0.04364000  1.0
  Ga  Ga7  2  0.50000000  0.25000000  0.87827000  1.0
  Ga  Ga8  1  0.00000000  0.00000000  0.12087000  1.0
  Ga  Ga9  1  0.00000000  0.00000000  0.95942000  1.0
  Ga  Ga10  1  0.00000000  0.50000000  0.12179000  1.0
  Ga  Ga11  1  0.00000000  0.50000000  0.95942000  1.0
  Ni  Ni12  4  0.22485000  0.25079000  0.11687000  1.0
  Ni  Ni13  4  0.25000000  0.25000000  0.95942000  1.0
  Ni  Ni14  2  0.25000000  0.00000000  0.87827000  1.0
  Ni  Ni15  2  0.25000000  0.50000000  0.87827000  1.0
  Ni  Ni16  2  0.25704000  0.00000000  0.04151000  1.0
  Ni  Ni17  2  0.26447000  0.50000000  0.04338000  1.0
  C  C18  1  0.50000000  0.00000000  0.21564000  1.0
  O  O19  1  0.50000000  0.00000000  0.25886000  1.0
