# generated using pymatgen
data_Li4In4Ge4Au4C
_symmetry_space_group_name_H-M   Pm
_cell_length_a   6.00109000
_cell_length_b   8.46544000
_cell_length_c   24.49980000
_cell_angle_alpha   90.00000000
_cell_angle_beta   90.00000000
_cell_angle_gamma   90.00000000
_symmetry_Int_Tables_number   6
_chemical_formula_structural   Li4In4Ge4Au4C
_chemical_formula_sum   'Li4 In4 Ge4 Au4 C1'
_cell_volume   1244.63558920
_cell_formula_units_Z   1
loop_
 _symmetry_equiv_pos_site_id
 _symmetry_equiv_pos_as_xyz
  1  'x, y, z'
  2  'x, -y, z'
loop_
 _atom_site_type_symbol
 _atom_site_label
 _atom_site_symmetry_multiplicity
 _atom_site_fract_x
 _atom_site_fract_y
 _atom_site_fract_z
 _atom_site_occupancy
  Li  Li0  1  0.18926000  0.00000000  0.04911000  1.0
  Li  Li1  1  0.26502000  0.50000000  0.02577000  1.0
  Li  Li2  1  0.73381000  0.00000000  0.90817000  1.0
  Li  Li3  1  0.73381000  0.50000000  0.90817000  1.0
  In  In4  2  0.47923000  0.24899000  0.11484000  1.0
  In  In5  2  0.98920000  0.25000000  0.96939000  1.0
  Ge  Ge6  1  0.23381000  0.00000000  0.90817000  1.0
  Ge  Ge7  1  0.23381000  0.50000000  0.90817000  1.0
  Ge  Ge8  1  0.66497000  0.00000000  0.02161000  1.0
  Ge  Ge9  1  0.70020000  0.50000000  0.05405000  1.0
  Au  Au10  2  0.02514000  0.29974000  0.08611000  1.0
  Au  Au11  2  0.48920000  0.25000000  0.96939000  1.0
  C  C12  1  0.52354000  0.00000000  0.09023000  1.0
