# generated using pymatgen
data_Y16Au16C
_symmetry_space_group_name_H-M   'P 1'
_cell_length_a   10.24760000
_cell_length_b   7.24612000
_cell_length_c   27.68570000
_cell_angle_alpha   90.00000000
_cell_angle_beta   90.00000000
_cell_angle_gamma   90.00000000
_symmetry_Int_Tables_number   1
_chemical_formula_structural   Y16Au16C
_chemical_formula_sum   'Y16 Au16 C1'
_cell_volume   2055.81104759
_cell_formula_units_Z   1
loop_
 _symmetry_equiv_pos_site_id
 _symmetry_equiv_pos_as_xyz
  1  'x, y, z'
loop_
 _atom_site_type_symbol
 _atom_site_label
 _atom_site_symmetry_multiplicity
 _atom_site_fract_x
 _atom_site_fract_y
 _atom_site_fract_z
 _atom_site_occupancy
  Y  Y0  1  0.25000000  0.50000000  0.13880000  1.0
  Y  Y1  1  0.00000000  0.50000000  0.04627000  1.0
  Y  Y2  1  0.25004000  0.50000000  0.95240000  1.0
  Y  Y3  1  0.01956000  0.50000000  0.86200000  1.0
  Y  Y4  1  0.75000000  0.50000000  0.13880000  1.0
  Y  Y5  1  0.50000000  0.50000000  0.04627000  1.0
  Y  Y6  1  0.75001000  0.50000000  0.95357000  1.0
  Y  Y7  1  0.48056000  0.50000000  0.86200000  1.0
  Y  Y8  1  0.25000000  0.00000000  0.13880000  1.0
  Y  Y9  1  0.00000000  0.00000000  0.04627000  1.0
  Y  Y10  1  0.25000000  0.00000000  0.95343000  1.0
  Y  Y11  1  0.98570000  0.00000000  0.86063000  1.0
  Y  Y12  1  0.75000000  0.00000000  0.13880000  1.0
  Y  Y13  1  0.50000000  0.00000000  0.04627000  1.0
  Y  Y14  1  0.75001000  0.00000000  0.95353000  1.0
  Y  Y15  1  0.51436000  0.00000000  0.86063000  1.0
  Au  Au16  1  0.00000000  0.75000000  0.13880000  1.0
  Au  Au17  1  0.25000000  0.75000000  0.04627000  1.0
  Au  Au18  1  0.99815000  0.75626000  0.95309000  1.0
  Au  Au19  1  0.25004000  0.80276000  0.85861000  1.0
  Au  Au20  1  0.50000000  0.75000000  0.13880000  1.0
  Au  Au21  1  0.75000000  0.75000000  0.04627000  1.0
  Au  Au22  1  0.50186000  0.75627000  0.95310000  1.0
  Au  Au23  1  0.75003000  0.73926000  0.86654000  1.0
  Au  Au24  1  0.00000000  0.25000000  0.13880000  1.0
  Au  Au25  1  0.25000000  0.25000000  0.04627000  1.0
  Au  Au26  1  0.99815000  0.24374000  0.95309000  1.0
  Au  Au27  1  0.25004000  0.19724000  0.85861000  1.0
  Au  Au28  1  0.50000000  0.25000000  0.13880000  1.0
  Au  Au29  1  0.75000000  0.25000000  0.04627000  1.0
  Au  Au30  1  0.50186000  0.24373000  0.95310000  1.0
  Au  Au31  1  0.75003000  0.26074000  0.86654000  1.0
  C  C32  1  0.25013000  0.50000000  0.86826000  1.0
