# generated using pymatgen
data_Li16Sn8Ge8C
_symmetry_space_group_name_H-M   'P 1'
_cell_length_a   6.92564000
_cell_length_b   9.79433000
_cell_length_c   27.34580000
_cell_angle_alpha   90.00000000
_cell_angle_beta   90.00000000
_cell_angle_gamma   90.00000000
_symmetry_Int_Tables_number   1
_chemical_formula_structural   Li16Sn8Ge8C
_chemical_formula_sum   'Li16 Sn8 Ge8 C1'
_cell_volume   1854.92040462
_cell_formula_units_Z   1
loop_
 _symmetry_equiv_pos_site_id
 _symmetry_equiv_pos_as_xyz
  1  'x, y, z'
loop_
 _atom_site_type_symbol
 _atom_site_label
 _atom_site_symmetry_multiplicity
 _atom_site_fract_x
 _atom_site_fract_y
 _atom_site_fract_z
 _atom_site_occupancy
  Li  Li0  1  0.00000000  0.75000000  0.95523000  1.0
  Li  Li1  1  0.50000000  0.00000000  0.86569000  1.0
  Li  Li2  1  0.00000000  0.25000000  0.95523000  1.0
  Li  Li3  1  0.50000000  0.50000000  0.86569000  1.0
  Li  Li4  1  0.25000000  0.00000000  0.95523000  1.0
  Li  Li5  1  0.25000000  0.50000000  0.95523000  1.0
  Li  Li6  1  0.75000000  0.75000000  0.86569000  1.0
  Li  Li7  1  0.75000000  0.25000000  0.86569000  1.0
  Li  Li8  1  0.10878000  0.27630000  0.13220000  1.0
  Li  Li9  1  0.51543000  0.43119000  0.04175000  1.0
  Li  Li10  1  0.00573000  0.70661000  0.12610000  1.0
  Li  Li11  1  0.55956000  0.96075000  0.04168000  1.0
  Li  Li12  1  0.48575000  0.55991000  0.13690000  1.0
  Li  Li13  1  0.31380000  0.01237000  0.11507000  1.0
  Li  Li14  1  0.80426000  0.17871000  0.05489000  1.0
  Li  Li15  1  0.73812000  0.66308000  0.04665000  1.0
  Sn  Sn16  1  0.00000000  0.00000000  0.86569000  1.0
  Sn  Sn17  1  0.50000000  0.25000000  0.95523000  1.0
  Sn  Sn18  1  0.50000000  0.75000000  0.95523000  1.0
  Sn  Sn19  1  0.00000000  0.50000000  0.86569000  1.0
  Sn  Sn20  1  0.05017000  0.45821000  0.03913000  1.0
  Sn  Sn21  1  0.61241000  0.83675000  0.14202000  1.0
  Sn  Sn22  1  0.53371000  0.25099000  0.13412000  1.0
  Sn  Sn23  1  0.05641000  0.89158000  0.04113000  1.0
  Ge  Ge24  1  0.25000000  0.25000000  0.86569000  1.0
  Ge  Ge25  1  0.25000000  0.75000000  0.86569000  1.0
  Ge  Ge26  1  0.75000000  0.50000000  0.95523000  1.0
  Ge  Ge27  1  0.75000000  0.00000000  0.95523000  1.0
  Ge  Ge28  1  0.36334000  0.70998000  0.06139000  1.0
  Ge  Ge29  1  0.23433000  0.18558000  0.03660000  1.0
  Ge  Ge30  1  0.92892000  0.01113000  0.13081000  1.0
  Ge  Ge31  1  0.81841000  0.44956000  0.11973000  1.0
  C  C32  1  0.65386000  0.05257000  0.10957000  1.0
