data_image0
_chemical_formula_structural       Ca16In16C
_chemical_formula_sum              "Ca16 In16 C1"
_cell_length_a       7.80577
_cell_length_b       11.039
_cell_length_c       28.2793
_cell_angle_alpha    90
_cell_angle_beta     90
_cell_angle_gamma    90

_space_group_name_H-M_alt    "P 1"
_space_group_IT_number       1

loop_
  _space_group_symop_operation_xyz
  'x, y, z'

loop_
  _atom_site_type_symbol
  _atom_site_label
  _atom_site_symmetry_multiplicity
  _atom_site_fract_x
  _atom_site_fract_y
  _atom_site_fract_z
  _atom_site_occupancy
  Ca  Ca1       1.0  0.00000  0.00000  0.85362  1.0000
  Ca  Ca2       1.0  0.00000  0.25000  0.95121  1.0000
  Ca  Ca3       1.0  0.99854  0.00006  0.04795  1.0000
  Ca  Ca4       1.0  0.96711  0.24996  0.16100  1.0000
  Ca  Ca5       1.0  0.00000  0.50000  0.85362  1.0000
  Ca  Ca6       1.0  0.00000  0.75000  0.95121  1.0000
  Ca  Ca7       1.0  0.99859  0.50013  0.04788  1.0000
  Ca  Ca8       1.0  0.00702  0.75011  0.14742  1.0000
  Ca  Ca9       1.0  0.50000  0.00000  0.85362  1.0000
  Ca  Ca10      1.0  0.50000  0.25000  0.95121  1.0000
  Ca  Ca11      1.0  0.50146  0.00005  0.04794  1.0000
  Ca  Ca12      1.0  0.53288  0.24997  0.16100  1.0000
  Ca  Ca13      1.0  0.50000  0.50000  0.85362  1.0000
  Ca  Ca14      1.0  0.50000  0.75000  0.95121  1.0000
  Ca  Ca15      1.0  0.50141  0.50013  0.04788  1.0000
  Ca  Ca16      1.0  0.49299  0.75011  0.14742  1.0000
  In  In1       1.0  0.25000  0.25000  0.85362  1.0000
  In  In2       1.0  0.25000  0.00000  0.95121  1.0000
  In  In3       1.0  0.25002  0.25039  0.05733  1.0000
  In  In4       1.0  0.25000  0.02729  0.14648  1.0000
  In  In5       1.0  0.25000  0.75000  0.85362  1.0000
  In  In6       1.0  0.25000  0.50000  0.95121  1.0000
  In  In7       1.0  0.25000  0.75023  0.04869  1.0000
  In  In8       1.0  0.24999  0.47138  0.14606  1.0000
  In  In9       1.0  0.75000  0.25000  0.85362  1.0000
  In  In10      1.0  0.75000  0.00000  0.95121  1.0000
  In  In11      1.0  0.75000  0.24997  0.05530  1.0000
  In  In12      1.0  0.75000  0.99249  0.14647  1.0000
  In  In13      1.0  0.75000  0.75000  0.85362  1.0000
  In  In14      1.0  0.75000  0.50000  0.95121  1.0000
  In  In15      1.0  0.75000  0.75003  0.05406  1.0000
  In  In16      1.0  0.75000  0.50791  0.14648  1.0000
  C   C1        1.0  0.25000  0.24788  0.13900  1.0000
