# generated using pymatgen
data_Ca16In16C
_symmetry_space_group_name_H-M   'P 1'
_cell_length_a   11.03900000
_cell_length_b   7.80577000
_cell_length_c   28.27930000
_cell_angle_alpha   90.00000000
_cell_angle_beta   90.00000000
_cell_angle_gamma   90.00000000
_symmetry_Int_Tables_number   1
_chemical_formula_structural   Ca16In16C
_chemical_formula_sum   'Ca16 In16 C1'
_cell_volume   2436.76775392
_cell_formula_units_Z   1
loop_
 _symmetry_equiv_pos_site_id
 _symmetry_equiv_pos_as_xyz
  1  'x, y, z'
loop_
 _atom_site_type_symbol
 _atom_site_label
 _atom_site_symmetry_multiplicity
 _atom_site_fract_x
 _atom_site_fract_y
 _atom_site_fract_z
 _atom_site_occupancy
  Ca  Ca0  1  0.00000000  0.75000000  0.14638000  1.0
  Ca  Ca1  1  0.25000000  0.75000000  0.04879000  1.0
  Ca  Ca2  1  0.00006000  0.75146000  0.95205000  1.0
  Ca  Ca3  1  0.24996000  0.78289000  0.83900000  1.0
  Ca  Ca4  1  0.50000000  0.75000000  0.14638000  1.0
  Ca  Ca5  1  0.75000000  0.75000000  0.04879000  1.0
  Ca  Ca6  1  0.50013000  0.75141000  0.95212000  1.0
  Ca  Ca7  1  0.75011000  0.74298000  0.85258000  1.0
  Ca  Ca8  1  0.00000000  0.25000000  0.14638000  1.0
  Ca  Ca9  1  0.25000000  0.25000000  0.04879000  1.0
  Ca  Ca10  1  0.00006000  0.24854000  0.95205000  1.0
  Ca  Ca11  1  0.24996000  0.21711000  0.83900000  1.0
  Ca  Ca12  1  0.50000000  0.25000000  0.14638000  1.0
  Ca  Ca13  1  0.75000000  0.25000000  0.04879000  1.0
  Ca  Ca14  1  0.50013000  0.24859000  0.95212000  1.0
  Ca  Ca15  1  0.75011000  0.25702000  0.85258000  1.0
  In  In16  1  0.25000000  0.50000000  0.14638000  1.0
  In  In17  1  0.00000000  0.50000000  0.04879000  1.0
  In  In18  1  0.25039000  0.50000000  0.94267000  1.0
  In  In19  1  0.02729000  0.50000000  0.85352000  1.0
  In  In20  1  0.75000000  0.50000000  0.14638000  1.0
  In  In21  1  0.50000000  0.50000000  0.04879000  1.0
  In  In22  1  0.75023000  0.50000000  0.95131000  1.0
  In  In23  1  0.47138000  0.50000000  0.85394000  1.0
  In  In24  1  0.25000000  0.00000000  0.14638000  1.0
  In  In25  1  0.00000000  0.00000000  0.04879000  1.0
  In  In26  1  0.24997000  0.00000000  0.94470000  1.0
  In  In27  1  0.99249000  0.00000000  0.85353000  1.0
  In  In28  1  0.75000000  0.00000000  0.14638000  1.0
  In  In29  1  0.50000000  0.00000000  0.04879000  1.0
  In  In30  1  0.75003000  0.00000000  0.94594000  1.0
  In  In31  1  0.50791000  0.00000000  0.85352000  1.0
  C  C32  1  0.24788000  0.50000000  0.86100000  1.0
