# generated using pymatgen
data_Ca16In16C
_symmetry_space_group_name_H-M   Pm
_cell_length_a   11.03900000
_cell_length_b   7.80577000
_cell_length_c   28.27930000
_cell_angle_alpha   90.00000000
_cell_angle_beta   90.00000000
_cell_angle_gamma   90.00000000
_symmetry_Int_Tables_number   6
_chemical_formula_structural   Ca16In16C
_chemical_formula_sum   'Ca16 In16 C1'
_cell_volume   2436.76775392
_cell_formula_units_Z   1
loop_
 _symmetry_equiv_pos_site_id
 _symmetry_equiv_pos_as_xyz
  1  'x, y, z'
  2  'x, -y, z'
loop_
 _atom_site_type_symbol
 _atom_site_label
 _atom_site_symmetry_multiplicity
 _atom_site_fract_x
 _atom_site_fract_y
 _atom_site_fract_z
 _atom_site_occupancy
  Ca  Ca0  2  0.00000000  0.25000000  0.85362000  1.0
  Ca  Ca1  2  0.00006000  0.24854000  0.04795000  1.0
  Ca  Ca2  2  0.24996000  0.21711000  0.16100000  1.0
  Ca  Ca3  2  0.25000000  0.25000000  0.95121000  1.0
  Ca  Ca4  2  0.50000000  0.25000000  0.85362000  1.0
  Ca  Ca5  2  0.50013000  0.24859000  0.04788000  1.0
  Ca  Ca6  2  0.75000000  0.25000000  0.95121000  1.0
  Ca  Ca7  2  0.75011000  0.25702000  0.14742000  1.0
  In  In8  1  0.00000000  0.00000000  0.95121000  1.0
  In  In9  1  0.00000000  0.50000000  0.95121000  1.0
  In  In10  1  0.02729000  0.50000000  0.14648000  1.0
  In  In11  1  0.24997000  0.00000000  0.05530000  1.0
  In  In12  1  0.25000000  0.00000000  0.85362000  1.0
  In  In13  1  0.25000000  0.50000000  0.85362000  1.0
  In  In14  1  0.25039000  0.50000000  0.05733000  1.0
  In  In15  1  0.47138000  0.50000000  0.14606000  1.0
  In  In16  1  0.50000000  0.00000000  0.95121000  1.0
  In  In17  1  0.50000000  0.50000000  0.95121000  1.0
  In  In18  1  0.50791000  0.00000000  0.14648000  1.0
  In  In19  1  0.75000000  0.00000000  0.85362000  1.0
  In  In20  1  0.75000000  0.50000000  0.85362000  1.0
  In  In21  1  0.75003000  0.00000000  0.05406000  1.0
  In  In22  1  0.75023000  0.50000000  0.04869000  1.0
  In  In23  1  0.99249000  0.00000000  0.14647000  1.0
  C  C24  1  0.24788000  0.50000000  0.13900000  1.0
