data_image0
_chemical_formula_structural       Li8Cu4Sb4CO
_chemical_formula_sum              "Li8 Cu4 Sb4 C1 O1"
_cell_length_a       6.37457
_cell_length_b       6.37457
_cell_length_c       24.7809
_cell_angle_alpha    90
_cell_angle_beta     90
_cell_angle_gamma    90

_space_group_name_H-M_alt    "P 1"
_space_group_IT_number       1

loop_
  _space_group_symop_operation_xyz
  'x, y, z'

loop_
  _atom_site_type_symbol
  _atom_site_label
  _atom_site_symmetry_multiplicity
  _atom_site_fract_x
  _atom_site_fract_y
  _atom_site_fract_z
  _atom_site_occupancy
  Li  Li1       1.0  0.00000  0.00000  0.96785  1.0000
  Li  Li2       1.0  0.50000  1.00000  0.10845  1.0000
  Li  Li3       1.0  0.99997  0.50001  0.10912  1.0000
  Li  Li4       1.0  0.50000  0.50000  0.96785  1.0000
  Li  Li5       1.0  0.24992  0.25008  0.02801  1.0000
  Li  Li6       1.0  0.25000  0.75000  0.90354  1.0000
  Li  Li7       1.0  0.75008  0.74992  0.02801  1.0000
  Li  Li8       1.0  0.75000  0.25000  0.90354  1.0000
  Cu  Cu1       1.0  0.00000  0.99999  0.08830  1.0000
  Cu  Cu2       1.0  0.50003  0.49999  0.08830  1.0000
  Cu  Cu3       1.0  0.50000  0.00000  0.96785  1.0000
  Cu  Cu4       1.0  0.00000  0.50000  0.96785  1.0000
  Sb  Sb1       1.0  0.25000  0.25000  0.90354  1.0000
  Sb  Sb2       1.0  0.25075  0.75075  0.04261  1.0000
  Sb  Sb3       1.0  0.75000  0.75000  0.90354  1.0000
  Sb  Sb4       1.0  0.74924  0.24924  0.04261  1.0000
  C   C1        1.0  0.99999  0.50005  0.19357  1.0000
  O   O1        1.0  0.00000  0.50004  0.23966  1.0000
