# generated using pymatgen
data_Li4Y4In4Ge4C
_symmetry_space_group_name_H-M   P1
_cell_length_a   6.03525000
_cell_length_b   9.31878000
_cell_length_c   24.52620000
_cell_angle_alpha   90.00000000
_cell_angle_beta   90.00000000
_cell_angle_gamma   90.00000000
_symmetry_Int_Tables_number   1
_chemical_formula_structural   Li4Y4In4Ge4C
_chemical_formula_sum   'Li4 Y4 In4 Ge4 C1'
_cell_volume   1379.38210995
_cell_formula_units_Z   1
loop_
 _symmetry_equiv_pos_site_id
 _symmetry_equiv_pos_as_xyz
  1  'x, y, z'
loop_
 _atom_site_type_symbol
 _atom_site_label
 _atom_site_symmetry_multiplicity
 _atom_site_fract_x
 _atom_site_fract_y
 _atom_site_fract_z
 _atom_site_occupancy
  Li  Li0  1  0.24273000  0.25000000  0.90773000  1.0
  Li  Li1  1  0.24273000  0.75000000  0.90773000  1.0
  Li  Li2  1  0.69315000  0.25004000  0.02954000  1.0
  Li  Li3  1  0.71023000  0.75008000  0.02833000  1.0
  Y  Y4  1  0.48168000  0.01395000  0.10085000  1.0
  Y  Y5  1  0.48188000  0.48606000  0.10087000  1.0
  Y  Y6  1  0.99515000  0.00000000  0.96924000  1.0
  Y  Y7  1  0.99515000  0.50000000  0.96924000  1.0
  In  In8  1  0.15907000  0.25001000  0.05066000  1.0
  In  In9  1  0.21563000  0.75000000  0.03855000  1.0
  In  In10  1  0.74273000  0.25000000  0.90773000  1.0
  In  In11  1  0.74273000  0.75000000  0.90773000  1.0
  Ge  Ge12  1  0.49515000  0.00000000  0.96924000  1.0
  Ge  Ge13  1  0.49515000  0.50000000  0.96924000  1.0
  Ge  Ge14  1  0.97826000  0.97326000  0.09217000  1.0
  Ge  Ge15  1  0.97850000  0.52672000  0.09216000  1.0
  C  C16  1  0.47781000  0.25002000  0.09505000  1.0
