data_image0
_chemical_formula_structural       ZnAuZnAuZnAuZnAuZnAuZnAuZnAuZnAu
_chemical_formula_sum              "Zn8 Au8"
_cell_length_a       6.43103
_cell_length_b       6.43103
_cell_length_c       24.8233
_cell_angle_alpha    90
_cell_angle_beta     90
_cell_angle_gamma    90

_space_group_name_H-M_alt    "P 1"
_space_group_IT_number       1

loop_
  _space_group_symop_operation_xyz
  'x, y, z'

loop_
  _atom_site_type_symbol
  _atom_site_label
  _atom_site_symmetry_multiplicity
  _atom_site_fract_x
  _atom_site_fract_y
  _atom_site_fract_z
  _atom_site_occupancy
  Zn  Zn1       1.0  0.25000  0.25000  0.98386  1.0000
  Au  Au1       1.0  0.00000  0.00000  0.91909  1.0000
  Zn  Zn2       1.0  0.25000  0.25000  0.11340  1.0000
  Au  Au2       1.0  0.00000  0.00000  0.04863  1.0000
  Zn  Zn3       1.0  0.25000  0.75000  0.98386  1.0000
  Au  Au3       1.0  0.00000  0.50000  0.91909  1.0000
  Zn  Zn4       1.0  0.25000  0.75000  0.11340  1.0000
  Au  Au4       1.0  0.00000  0.50000  0.04863  1.0000
  Zn  Zn5       1.0  0.75000  0.25000  0.98386  1.0000
  Au  Au5       1.0  0.50000  0.00000  0.91909  1.0000
  Zn  Zn6       1.0  0.75000  0.25000  0.11340  1.0000
  Au  Au6       1.0  0.50000  0.00000  0.04863  1.0000
  Zn  Zn7       1.0  0.75000  0.75000  0.98386  1.0000
  Au  Au7       1.0  0.50000  0.50000  0.91909  1.0000
  Zn  Zn8       1.0  0.75000  0.75000  0.11340  1.0000
  Au  Au8       1.0  0.50000  0.50000  0.04863  1.0000
