# generated using pymatgen
data_LiMgAgPb
_symmetry_space_group_name_H-M   'P 1'
_cell_length_a   6.87998000
_cell_length_b   4.86488000
_cell_length_c   27.29730000
_cell_angle_alpha   90.00000000
_cell_angle_beta   90.00000000
_cell_angle_gamma   90.00000000
_symmetry_Int_Tables_number   1
_chemical_formula_structural   LiMgAgPb
_chemical_formula_sum   'Li4 Mg4 Ag4 Pb4'
_cell_volume   913.64819515
_cell_formula_units_Z   4
loop_
 _symmetry_equiv_pos_site_id
 _symmetry_equiv_pos_as_xyz
  1  'x, y, z'
loop_
 _atom_site_type_symbol
 _atom_site_label
 _atom_site_symmetry_multiplicity
 _atom_site_fract_x
 _atom_site_fract_y
 _atom_site_fract_z
 _atom_site_occupancy
  Li  Li0  1  0.25000000  0.00000000  0.95545000  1.0
  Li  Li1  1  0.75000000  0.50000000  0.86634000  1.0
  Li  Li2  1  0.24665000  0.00000000  0.13652000  1.0
  Li  Li3  1  0.76420000  0.50000000  0.04761000  1.0
  Mg  Mg4  1  0.75000000  0.00000000  0.95545000  1.0
  Mg  Mg5  1  0.25000000  0.50000000  0.86634000  1.0
  Mg  Mg6  1  0.75271000  0.00000000  0.13987000  1.0
  Mg  Mg7  1  0.23148500  0.50000000  0.04999000  1.0
  Ag  Ag8  1  1.00000000  0.00000000  0.86634000  1.0
  Ag  Ag9  1  0.50000000  0.50000000  0.95545000  1.0
  Ag  Ag10  1  0.99326000  0.00000000  0.05070000  1.0
  Ag  Ag11  1  0.51348500  0.50000000  0.13029000  1.0
  Pb  Pb12  1  1.00000000  0.50000000  0.95545000  1.0
  Pb  Pb13  1  0.50000000  0.00000000  0.86634000  1.0
  Pb  Pb14  1  0.00827500  0.50000000  0.14941000  1.0
  Pb  Pb15  1  0.49964500  0.00000000  0.04829500  1.0
