# generated using pymatgen
data_Li2InIr
_symmetry_space_group_name_H-M   'P 1'
_cell_length_a   4.36952000
_cell_length_b   6.17944000
_cell_length_c   26.55430000
_cell_angle_alpha   90.00000000
_cell_angle_beta   90.00000000
_cell_angle_gamma   90.00000000
_symmetry_Int_Tables_number   1
_chemical_formula_structural   Li2InIr
_chemical_formula_sum   'Li8 In4 Ir4'
_cell_volume   716.99761116
_cell_formula_units_Z   4
loop_
 _symmetry_equiv_pos_site_id
 _symmetry_equiv_pos_as_xyz
  1  'x, y, z'
loop_
 _atom_site_type_symbol
 _atom_site_label
 _atom_site_symmetry_multiplicity
 _atom_site_fract_x
 _atom_site_fract_y
 _atom_site_fract_z
 _atom_site_occupancy
  Li  Li0  1  0.00000000  0.75000000  0.04114000  1.0
  Li  Li1  1  0.00000000  0.25000000  0.04114000  1.0
  Li  Li2  1  0.50000000  0.25000000  0.12341000  1.0
  Li  Li3  1  0.50000000  0.75000000  0.12341000  1.0
  Li  Li4  1  0.00000000  0.77319000  0.86056000  1.0
  Li  Li5  1  0.00000000  0.22681000  0.86056000  1.0
  Li  Li6  1  0.50000000  0.24645000  0.96214000  1.0
  Li  Li7  1  0.50000000  0.75355000  0.96214000  1.0
  In  In8  1  0.00000000  0.00000000  0.12341000  1.0
  In  In9  1  0.50000000  0.50000000  0.04114000  1.0
  In  In10  1  0.00000000  0.00000000  0.95384000  1.0
  In  In11  1  0.50000000  0.50000000  0.88215000  1.0
  Ir  Ir12  1  0.50000000  0.00000000  0.04114000  1.0
  Ir  Ir13  1  0.00000000  0.50000000  0.12341000  1.0
  Ir  Ir14  1  0.50000000  0.00000000  0.88365000  1.0
  Ir  Ir15  1  0.00000000  0.50000000  0.95224500  1.0
