# generated using pymatgen
data_Al8Fe16Ni8C
_symmetry_space_group_name_H-M   'P 1'
_cell_length_a   5.78917000
_cell_length_b   8.18712000
_cell_length_c   26.14030000
_cell_angle_alpha   90.00000000
_cell_angle_beta   90.00000000
_cell_angle_gamma   90.00000000
_symmetry_Int_Tables_number   1
_chemical_formula_structural   Al8Fe16Ni8C
_chemical_formula_sum   'Al8 Fe16 Ni8 C1'
_cell_volume   1238.96211387
_cell_formula_units_Z   1
loop_
 _symmetry_equiv_pos_site_id
 _symmetry_equiv_pos_as_xyz
  1  'x, y, z'
loop_
 _atom_site_type_symbol
 _atom_site_label
 _atom_site_symmetry_multiplicity
 _atom_site_fract_x
 _atom_site_fract_y
 _atom_site_fract_z
 _atom_site_occupancy
  Al  Al0  1  0.00000000  0.00000000  0.88255000  1.0
  Al  Al1  1  0.50000000  0.25000000  0.96085000  1.0
  Al  Al2  1  0.50000000  0.75000000  0.96085000  1.0
  Al  Al3  1  0.00000000  0.50000000  0.88255000  1.0
  Al  Al4  1  0.00593000  0.50707000  0.03981000  1.0
  Al  Al5  1  0.45951000  0.75001000  0.13426000  1.0
  Al  Al6  1  0.57616000  0.25004000  0.14652000  1.0
  Al  Al7  1  0.00604000  0.99283000  0.03981000  1.0
  Fe  Fe8  1  0.25000000  0.00000000  0.96085000  1.0
  Fe  Fe9  1  0.75000000  0.50000000  0.96085000  1.0
  Fe  Fe10  1  0.75000000  0.00000000  0.96085000  1.0
  Fe  Fe11  1  0.25000000  0.50000000  0.96085000  1.0
  Fe  Fe12  1  0.75000000  0.75000000  0.88255000  1.0
  Fe  Fe13  1  0.25000000  0.25000000  0.88255000  1.0
  Fe  Fe14  1  0.25000000  0.75000000  0.88255000  1.0
  Fe  Fe15  1  0.75000000  0.25000000  0.88255000  1.0
  Fe  Fe16  1  0.28089000  0.47700000  0.11725000  1.0
  Fe  Fe17  1  0.72812000  0.97743000  0.11439000  1.0
  Fe  Fe18  1  0.72816000  0.52263000  0.11442000  1.0
  Fe  Fe19  1  0.28098000  0.02304000  0.11725000  1.0
  Fe  Fe20  1  0.74186000  0.24989000  0.04050000  1.0
  Fe  Fe21  1  0.28120000  0.74991000  0.04213000  1.0
  Fe  Fe22  1  0.25606000  0.25000000  0.04966000  1.0
  Fe  Fe23  1  0.72042000  0.75000000  0.04770000  1.0
  Ni  Ni24  1  0.00000000  0.75000000  0.96085000  1.0
  Ni  Ni25  1  0.50000000  0.00000000  0.88255000  1.0
  Ni  Ni26  1  0.00000000  0.25000000  0.96085000  1.0
  Ni  Ni27  1  0.50000000  0.50000000  0.88255000  1.0
  Ni  Ni28  1  0.94704000  0.25000000  0.11666000  1.0
  Ni  Ni29  1  0.49968000  0.48906000  0.03219000  1.0
  Ni  Ni30  1  0.03148000  0.75002000  0.11242000  1.0
  Ni  Ni31  1  0.49942000  0.01083000  0.03218000  1.0
  C  C32  1  0.25320000  0.25001000  0.12987000  1.0
