# generated using pymatgen
data_Li4Sc4Ga4Pd4CO
_symmetry_space_group_name_H-M   'P 1'
_cell_length_a   6.35289000
_cell_length_b   6.35289000
_cell_length_c   24.76470000
_cell_angle_alpha   90.00000000
_cell_angle_beta   90.00000000
_cell_angle_gamma   90.00000000
_symmetry_Int_Tables_number   1
_chemical_formula_structural   Li4Sc4Ga4Pd4CO
_chemical_formula_sum   'Li4 Sc4 Ga4 Pd4 C1 O1'
_cell_volume   999.48376137
_cell_formula_units_Z   1
loop_
 _symmetry_equiv_pos_site_id
 _symmetry_equiv_pos_as_xyz
  1  'x, y, z'
loop_
 _atom_site_type_symbol
 _atom_site_label
 _atom_site_symmetry_multiplicity
 _atom_site_fract_x
 _atom_site_fract_y
 _atom_site_fract_z
 _atom_site_occupancy
  Li  Li0  1  0.50000000  0.00000000  0.96793000  1
  Li  Li1  1  0.00000000  0.00000000  0.11944000  1
  Li  Li2  1  0.50000000  0.50000000  0.12087000  1
  Li  Li3  1  1.00000000  0.50000000  0.96793000  1
  Sc  Sc4  1  0.24998500  0.24998500  0.90380000  1
  Sc  Sc5  1  0.75017000  0.24983000  0.03244000  1
  Sc  Sc6  1  0.24983000  0.75017000  0.03244000  1
  Sc  Sc7  1  0.75001500  0.75001500  0.90380000  1
  Ga  Ga8  1  0.75002500  0.24997500  0.90380000  1
  Ga  Ga9  1  0.24973000  0.24973000  0.03468000  1
  Ga  Ga10  1  0.75027000  0.75027000  0.03468000  1
  Ga  Ga11  1  0.24997500  0.75002500  0.90380000  1
  Pd  Pd12  1  0.50000000  0.50000000  0.96793000  1
  Pd  Pd13  1  1.00000000  0.50000000  0.09076000  1
  Pd  Pd14  1  0.50000000  0.00000000  0.09076000  1
  Pd  Pd15  1  0.00000000  0.00000000  0.96793000  1
  C  C16  1  0.50000000  0.50000000  0.20646000  1
  O  O17  1  0.50000000  0.50000000  0.25259000  1
