# generated using pymatgen
data_LiVGePd
_symmetry_space_group_name_H-M   'P 1'
_cell_length_a   9.40562000
_cell_length_b   5.17268000
_cell_length_c   23.56350000
_cell_angle_alpha   90.00000000
_cell_angle_beta   90.00000000
_cell_angle_gamma   90.00000000
_symmetry_Int_Tables_number   1
_chemical_formula_structural   LiVGePd
_chemical_formula_sum   'Li4 V4 Ge4 Pd4'
_cell_volume   1146.41758651
_cell_formula_units_Z   4
loop_
 _symmetry_equiv_pos_site_id
 _symmetry_equiv_pos_as_xyz
  1  'x, y, z'
loop_
 _atom_site_type_symbol
 _atom_site_label
 _atom_site_symmetry_multiplicity
 _atom_site_fract_x
 _atom_site_fract_y
 _atom_site_fract_z
 _atom_site_occupancy
  Li  Li0  1  0.25000000  0.15116000  0.02520000  1.0
  Li  Li1  1  0.25000000  0.45505000  0.91945000  1.0
  Li  Li2  1  0.75000000  0.15116000  0.02520000  1.0
  Li  Li3  1  0.75000000  0.45505000  0.91945000  1.0
  V  V4  1  0.00000000  0.50000000  0.07561000  1.0
  V  V5  1  0.00000000  0.67445000  0.99082000  1.0
  V  V6  1  0.50000000  0.50000000  0.07561000  1.0
  V  V7  1  0.50000000  0.67449000  0.99083000  1.0
  Ge  Ge8  1  0.00000000  0.00000000  0.07561000  1.0
  Ge  Ge9  1  0.00000000  0.17536000  0.96823000  1.0
  Ge  Ge10  1  0.50000000  0.00000000  0.07561000  1.0
  Ge  Ge11  1  0.50000000  0.17545000  0.96829000  1.0
  Pd  Pd12  1  0.25000000  0.65116000  0.02520000  1.0
  Pd  Pd13  1  0.25005000  0.96227000  0.93069000  1.0
  Pd  Pd14  1  0.75000000  0.65116000  0.02520000  1.0
  Pd  Pd15  1  0.74995000  0.96227000  0.93069000  1.0
