data_image0
_chemical_formula_structural       Li8Al8Ag8Pd8C
_chemical_formula_sum              "Li8 Al8 Ag8 Pd8 C1"
_cell_length_a       6.21941
_cell_length_b       8.79558
_cell_length_c       26.5967
_cell_angle_alpha    90
_cell_angle_beta     90
_cell_angle_gamma    90

_space_group_name_H-M_alt    "P 1"
_space_group_IT_number       1

loop_
  _space_group_symop_operation_xyz
  'x, y, z'

loop_
  _atom_site_type_symbol
  _atom_site_label
  _atom_site_symmetry_multiplicity
  _atom_site_fract_x
  _atom_site_fract_y
  _atom_site_fract_z
  _atom_site_occupancy
  Li  Li1       1.0  0.25000  0.00000  0.95866  1.0000
  Li  Li2       1.0  0.25000  0.50000  0.95866  1.0000
  Li  Li3       1.0  0.75000  0.25000  0.87599  1.0000
  Li  Li4       1.0  0.75000  0.75000  0.87599  1.0000
  Li  Li5       1.0  0.22731  0.50000  0.13295  1.0000
  Li  Li6       1.0  0.29069  0.00000  0.16090  1.0000
  Li  Li7       1.0  0.75009  0.75034  0.04144  1.0000
  Li  Li8       1.0  0.75009  0.24966  0.04144  1.0000
  Al  Al1       1.0  0.75000  0.00000  0.95866  1.0000
  Al  Al2       1.0  0.75000  0.50000  0.95866  1.0000
  Al  Al3       1.0  0.25000  0.25000  0.87599  1.0000
  Al  Al4       1.0  0.25000  0.75000  0.87599  1.0000
  Al  Al5       1.0  0.77425  0.50000  0.12078  1.0000
  Al  Al6       1.0  0.69245  0.00000  0.12152  1.0000
  Al  Al7       1.0  0.25045  0.74891  0.04115  1.0000
  Al  Al8       1.0  0.25045  0.25108  0.04115  1.0000
  Ag  Ag1       1.0  0.00000  0.00000  0.87599  1.0000
  Ag  Ag2       1.0  0.00000  0.50000  0.87599  1.0000
  Ag  Ag3       1.0  0.50000  0.75000  0.95866  1.0000
  Ag  Ag4       1.0  0.50000  0.25000  0.95866  1.0000
  Ag  Ag5       1.0  0.00784  0.50000  0.04057  1.0000
  Ag  Ag6       1.0  0.99969  1.00000  0.04083  1.0000
  Ag  Ag7       1.0  0.49949  0.26312  0.12438  1.0000
  Ag  Ag8       1.0  0.49949  0.73688  0.12438  1.0000
  Pd  Pd1       1.0  0.00000  0.25000  0.95866  1.0000
  Pd  Pd2       1.0  0.00000  0.75000  0.95866  1.0000
  Pd  Pd3       1.0  0.50000  0.50000  0.87599  1.0000
  Pd  Pd4       1.0  0.50000  0.00000  0.87599  1.0000
  Pd  Pd5       1.0  0.00480  0.76297  0.11892  1.0000
  Pd  Pd6       1.0  0.00480  0.23702  0.11892  1.0000
  Pd  Pd7       1.0  0.49160  1.00000  0.03817  1.0000
  Pd  Pd8       1.0  0.49969  0.50000  0.04178  1.0000
  C   C1        1.0  0.99283  1.00000  0.13547  1.0000
