# generated using pymatgen
data_Li8Al8Ag8Pd8C
_symmetry_space_group_name_H-M   Pm
_cell_length_a   6.21941000
_cell_length_b   8.79558000
_cell_length_c   26.59670000
_cell_angle_alpha   90.00000000
_cell_angle_beta   90.00000000
_cell_angle_gamma   90.00000000
_symmetry_Int_Tables_number   6
_chemical_formula_structural   Li8Al8Ag8Pd8C
_chemical_formula_sum   'Li8 Al8 Ag8 Pd8 C1'
_cell_volume   1454.92774338
_cell_formula_units_Z   1
loop_
 _symmetry_equiv_pos_site_id
 _symmetry_equiv_pos_as_xyz
  1  'x, y, z'
  2  'x, -y, z'
loop_
 _atom_site_type_symbol
 _atom_site_label
 _atom_site_symmetry_multiplicity
 _atom_site_fract_x
 _atom_site_fract_y
 _atom_site_fract_z
 _atom_site_occupancy
  Li  Li0  2  0.75000000  0.25000000  0.87599000  1.0
  Li  Li1  2  0.75009000  0.24966000  0.04144000  1.0
  Li  Li2  1  0.22731000  0.50000000  0.13295000  1.0
  Li  Li3  1  0.25000000  0.00000000  0.95866000  1.0
  Li  Li4  1  0.25000000  0.50000000  0.95866000  1.0
  Li  Li5  1  0.29069000  0.00000000  0.16090000  1.0
  Al  Al6  2  0.25000000  0.25000000  0.87599000  1.0
  Al  Al7  2  0.25045000  0.25109000  0.04115000  1.0
  Al  Al8  1  0.69245000  0.00000000  0.12152000  1.0
  Al  Al9  1  0.75000000  0.00000000  0.95866000  1.0
  Al  Al10  1  0.75000000  0.50000000  0.95866000  1.0
  Al  Al11  1  0.77425000  0.50000000  0.12078000  1.0
  Ag  Ag12  2  0.49949000  0.26312000  0.12438000  1.0
  Ag  Ag13  2  0.50000000  0.25000000  0.95866000  1.0
  Ag  Ag14  1  -0.00000000  0.50000000  0.87599000  1.0
  Ag  Ag15  1  0.00000000  0.00000000  0.87599000  1.0
  Ag  Ag16  1  0.00784000  0.50000000  0.04057000  1.0
  Ag  Ag17  1  0.99969000  0.00000000  0.04083000  1.0
  Pd  Pd18  2  0.00000000  0.25000000  0.95866000  1.0
  Pd  Pd19  2  0.00480000  0.23703000  0.11892000  1.0
  Pd  Pd20  1  0.49160000  0.00000000  0.03817000  1.0
  Pd  Pd21  1  0.49969000  0.50000000  0.04178000  1.0
  Pd  Pd22  1  0.50000000  0.00000000  0.87599000  1.0
  Pd  Pd23  1  0.50000000  0.50000000  0.87599000  1.0
  C  C24  1  0.99283000  0.00000000  0.13547000  1.0
