# generated using pymatgen
data_Y16Al16C
_symmetry_space_group_name_H-M   Pmm2
_cell_length_a   7.18582000
_cell_length_b   10.16230000
_cell_length_c   27.62170000
_cell_angle_alpha   90.00000000
_cell_angle_beta   90.00000000
_cell_angle_gamma   90.00000000
_symmetry_Int_Tables_number   25
_chemical_formula_structural   Y16Al16C
_chemical_formula_sum   'Y16 Al16 C1'
_cell_volume   2017.05968772
_cell_formula_units_Z   1
loop_
 _symmetry_equiv_pos_site_id
 _symmetry_equiv_pos_as_xyz
  1  'x, y, z'
  2  '-x, -y, z'
  3  '-x, y, z'
  4  'x, -y, z'
loop_
 _atom_site_type_symbol
 _atom_site_label
 _atom_site_symmetry_multiplicity
 _atom_site_fract_x
 _atom_site_fract_y
 _atom_site_fract_z
 _atom_site_occupancy
  Y  Y0  4  0.24516000  0.24639000  0.04346000  1.0
  Y  Y1  4  0.25000000  0.25000000  0.86203000  1.0
  Y  Y2  2  0.22982000  0.50000000  0.14043000  1.0
  Y  Y3  2  0.25000000  0.00000000  0.95401000  1.0
  Y  Y4  2  0.25000000  0.50000000  0.95401000  1.0
  Y  Y5  2  0.29834000  0.00000000  0.14916000  1.0
  Al  Al6  2  0.00000000  0.21263000  0.13483000  1.0
  Al  Al7  2  0.00000000  0.25000000  0.95401000  1.0
  Al  Al8  2  0.50000000  0.25000000  0.95401000  1.0
  Al  Al9  2  0.50000000  0.26580000  0.13400000  1.0
  Al  Al10  1  0.00000000  0.00000000  0.06685000  1.0
  Al  Al11  1  0.00000000  0.00000000  0.86203000  1.0
  Al  Al12  1  0.00000000  0.50000000  0.04693000  1.0
  Al  Al13  1  0.00000000  0.50000000  0.86203000  1.0
  Al  Al14  1  0.50000000  0.00000000  0.04948000  1.0
  Al  Al15  1  0.50000000  0.00000000  0.86203000  1.0
  Al  Al16  1  0.50000000  0.50000000  0.05071000  1.0
  Al  Al17  1  0.50000000  0.50000000  0.86203000  1.0
  C  C18  1  0.00000000  0.00000000  0.14366000  1.0
