# generated using pymatgen
data_Al4Ni12CO
_symmetry_space_group_name_H-M   Pmm2
_cell_length_a   5.09807000
_cell_length_b   7.20976000
_cell_length_c   23.82360000
_cell_angle_alpha   90.00000000
_cell_angle_beta   90.00000000
_cell_angle_gamma   90.00000000
_symmetry_Int_Tables_number   25
_chemical_formula_structural   Al4Ni12CO
_chemical_formula_sum   'Al4 Ni12 C1 O1'
_cell_volume   875.65693401
_cell_formula_units_Z   1
loop_
 _symmetry_equiv_pos_site_id
 _symmetry_equiv_pos_as_xyz
  1  'x, y, z'
  2  '-x, -y, z'
  3  '-x, y, z'
  4  'x, -y, z'
loop_
 _atom_site_type_symbol
 _atom_site_label
 _atom_site_symmetry_multiplicity
 _atom_site_fract_x
 _atom_site_fract_y
 _atom_site_fract_z
 _atom_site_occupancy
  Al  Al0  1  0.00000000  0.00000000  0.02675000  1.0
  Al  Al1  1  0.00000000  0.50000000  0.02675000  1.0
  Al  Al2  1  0.50000000  0.00000000  0.92495000  1.0
  Al  Al3  1  0.50000000  0.50000000  0.92466000  1.0
  Ni  Ni4  4  0.24999000  0.25000000  0.08025000  1.0
  Ni  Ni5  4  0.25226000  0.25010000  0.97337000  1.0
  Ni  Ni6  1  0.00000000  0.00000000  0.91611000  1.0
  Ni  Ni7  1  0.00000000  0.50000000  0.92359000  1.0
  Ni  Ni8  1  0.50000000  0.00000000  0.02675000  1.0
  Ni  Ni9  1  0.50000000  0.50000000  0.02675000  1.0
  C  C10  1  0.00000000  0.00000000  0.84162000  1.0
  O  O11  1  0.00000000  0.00000000  0.79305000  1.0
