# generated using pymatgen
data_Y4Sc4In4Pd4CO
_symmetry_space_group_name_H-M   Pm
_cell_length_a   6.25545000
_cell_length_b   9.64246000
_cell_length_c   24.46440000
_cell_angle_alpha   90.00000000
_cell_angle_beta   90.00000000
_cell_angle_gamma   90.00000000
_symmetry_Int_Tables_number   6
_chemical_formula_structural   Y4Sc4In4Pd4CO
_chemical_formula_sum   'Y4 Sc4 In4 Pd4 C1 O1'
_cell_volume   1475.64187879
_cell_formula_units_Z   1
loop_
 _symmetry_equiv_pos_site_id
 _symmetry_equiv_pos_as_xyz
  1  'x, y, z'
  2  'x, -y, z'
loop_
 _atom_site_type_symbol
 _atom_site_label
 _atom_site_symmetry_multiplicity
 _atom_site_fract_x
 _atom_site_fract_y
 _atom_site_fract_z
 _atom_site_occupancy
  Y  Y0  2  0.50000000  0.25000000  0.90876000  1.0
  Y  Y1  2  0.80663000  0.24762000  0.02898000  1.0
  Sc  Sc2  1  0.17315000  0.00000000  0.96959000  1.0
  Sc  Sc3  1  0.17315000  0.50000000  0.96959000  1.0
  Sc  Sc4  1  0.50651000  0.00000000  0.07818000  1.0
  Sc  Sc5  1  0.51056000  0.50000000  0.07494000  1.0
  In  In6  2  0.00000000  0.25000000  0.90876000  1.0
  In  In7  2  0.29383000  0.24833000  0.04460000  1.0
  Pd  Pd8  1  0.01158000  0.50000000  0.06717000  1.0
  Pd  Pd9  1  0.01345000  0.00000000  0.07634000  1.0
  Pd  Pd10  1  0.67315000  0.00000000  0.96959000  1.0
  Pd  Pd11  1  0.67315000  0.50000000  0.96959000  1.0
  C  C12  1  0.98709000  0.00000000  0.15642000  1.0
  O  O13  1  0.99850000  0.00000000  0.20370000  1.0
