data_image0
_chemical_formula_structural       Li8Sc8Ga8Ge8CO
_chemical_formula_sum              "Li8 Sc8 Ga8 Ge8 C1 O1"
_cell_length_a       8.07712
_cell_length_b       8.37322
_cell_length_c       25.9689
_cell_angle_alpha    90
_cell_angle_beta     90
_cell_angle_gamma    90

_space_group_name_H-M_alt    "P 1"
_space_group_IT_number       1

loop_
  _space_group_symop_operation_xyz
  'x, y, z'

loop_
  _atom_site_type_symbol
  _atom_site_label
  _atom_site_symmetry_multiplicity
  _atom_site_fract_x
  _atom_site_fract_y
  _atom_site_fract_z
  _atom_site_occupancy
  Li  Li1       1.0  0.25000  0.00000  0.96169  1.0000
  Li  Li2       1.0  0.24998  0.00001  0.09120  1.0000
  Li  Li3       1.0  0.25000  0.50000  0.96169  1.0000
  Li  Li4       1.0  0.24995  0.50003  0.10772  1.0000
  Li  Li5       1.0  0.75000  0.00000  0.96169  1.0000
  Li  Li6       1.0  0.75003  0.00003  0.10527  1.0000
  Li  Li7       1.0  0.75000  0.50000  0.96169  1.0000
  Li  Li8       1.0  0.75011  0.50003  0.11095  1.0000
  Sc  Sc1       1.0  0.00000  0.25000  0.96169  1.0000
  Sc  Sc2       1.0  0.01206  0.23343  0.11349  1.0000
  Sc  Sc3       1.0  0.00000  0.75000  0.96169  1.0000
  Sc  Sc4       1.0  0.01215  0.76667  0.11353  1.0000
  Sc  Sc5       1.0  0.50000  0.25000  0.96169  1.0000
  Sc  Sc6       1.0  0.48802  0.23352  0.11352  1.0000
  Sc  Sc7       1.0  0.50000  0.75000  0.96169  1.0000
  Sc  Sc8       1.0  0.48794  0.76657  0.11356  1.0000
  Ga  Ga1       1.0  0.00000  0.00000  0.88508  1.0000
  Ga  Ga2       1.0  0.99082  0.00003  0.03470  1.0000
  Ga  Ga3       1.0  0.00000  0.50000  0.88508  1.0000
  Ga  Ga4       1.0  0.99843  0.50013  0.04030  1.0000
  Ga  Ga5       1.0  0.50000  0.00000  0.88508  1.0000
  Ga  Ga6       1.0  0.50921  0.00004  0.03470  1.0000
  Ga  Ga7       1.0  0.50000  0.50000  0.88508  1.0000
  Ga  Ga8       1.0  0.50162  0.50012  0.04027  1.0000
  Ge  Ge1       1.0  0.25000  0.25000  0.88508  1.0000
  Ge  Ge2       1.0  0.24999  0.25715  0.03727  1.0000
  Ge  Ge3       1.0  0.25000  0.75000  0.88508  1.0000
  Ge  Ge4       1.0  0.25000  0.74287  0.03723  1.0000
  Ge  Ge5       1.0  0.75000  0.25000  0.88508  1.0000
  Ge  Ge6       1.0  0.75009  0.25213  0.04125  1.0000
  Ge  Ge7       1.0  0.75000  0.75000  0.88508  1.0000
  Ge  Ge8       1.0  0.75009  0.74788  0.04127  1.0000
  C   C1        1.0  0.24936  0.99971  0.16503  1.0000
  O   O1        1.0  0.24968  0.99995  0.21061  1.0000
