# generated using pymatgen
data_Li8Sc8Ga8Ge8CO
_symmetry_space_group_name_H-M   'P 1'
_cell_length_a   8.07712000
_cell_length_b   8.37322000
_cell_length_c   25.96890000
_cell_angle_alpha   90.00000000
_cell_angle_beta   90.00000000
_cell_angle_gamma   90.00000000
_symmetry_Int_Tables_number   1
_chemical_formula_structural   Li8Sc8Ga8Ge8CO
_chemical_formula_sum   'Li8 Sc8 Ga8 Ge8 C1 O1'
_cell_volume   1756.31573115
_cell_formula_units_Z   1
loop_
 _symmetry_equiv_pos_site_id
 _symmetry_equiv_pos_as_xyz
  1  'x, y, z'
loop_
 _atom_site_type_symbol
 _atom_site_label
 _atom_site_symmetry_multiplicity
 _atom_site_fract_x
 _atom_site_fract_y
 _atom_site_fract_z
 _atom_site_occupancy
  Li  Li0  1  0.25000000  0.00000000  0.96169000  1.0
  Li  Li1  1  0.24998000  0.00001000  0.09120000  1.0
  Li  Li2  1  0.25000000  0.50000000  0.96169000  1.0
  Li  Li3  1  0.24995000  0.50003000  0.10772000  1.0
  Li  Li4  1  0.75000000  0.00000000  0.96169000  1.0
  Li  Li5  1  0.75003000  0.00003000  0.10527000  1.0
  Li  Li6  1  0.75000000  0.50000000  0.96169000  1.0
  Li  Li7  1  0.75011000  0.50003000  0.11095000  1.0
  Sc  Sc8  1  0.00000000  0.25000000  0.96169000  1.0
  Sc  Sc9  1  0.01206000  0.23343000  0.11349000  1.0
  Sc  Sc10  1  0.00000000  0.75000000  0.96169000  1.0
  Sc  Sc11  1  0.01215000  0.76667000  0.11353000  1.0
  Sc  Sc12  1  0.50000000  0.25000000  0.96169000  1.0
  Sc  Sc13  1  0.48802000  0.23352000  0.11352000  1.0
  Sc  Sc14  1  0.50000000  0.75000000  0.96169000  1.0
  Sc  Sc15  1  0.48794000  0.76657000  0.11356000  1.0
  Ga  Ga16  1  0.00000000  0.00000000  0.88508000  1.0
  Ga  Ga17  1  0.99082000  0.00003000  0.03470000  1.0
  Ga  Ga18  1  0.00000000  0.50000000  0.88508000  1.0
  Ga  Ga19  1  0.99843000  0.50013000  0.04030000  1.0
  Ga  Ga20  1  0.50000000  0.00000000  0.88508000  1.0
  Ga  Ga21  1  0.50921000  0.00004000  0.03470000  1.0
  Ga  Ga22  1  0.50000000  0.50000000  0.88508000  1.0
  Ga  Ga23  1  0.50162000  0.50012000  0.04027000  1.0
  Ge  Ge24  1  0.25000000  0.25000000  0.88508000  1.0
  Ge  Ge25  1  0.24999000  0.25715000  0.03727000  1.0
  Ge  Ge26  1  0.25000000  0.75000000  0.88508000  1.0
  Ge  Ge27  1  0.25000000  0.74287000  0.03723000  1.0
  Ge  Ge28  1  0.75000000  0.25000000  0.88508000  1.0
  Ge  Ge29  1  0.75009000  0.25213000  0.04125000  1.0
  Ge  Ge30  1  0.75000000  0.75000000  0.88508000  1.0
  Ge  Ge31  1  0.75009000  0.74788000  0.04127000  1.0
  C  C32  1  0.24936000  0.99971000  0.16503000  1.0
  O  O33  1  0.24968000  0.99995000  0.21061000  1.0
