# generated using pymatgen
data_V4Fe8Si4C
_symmetry_space_group_name_H-M   P4mm
_cell_length_a   5.64262000
_cell_length_b   5.64262000
_cell_length_c   24.23200000
_cell_angle_alpha   90.00000000
_cell_angle_beta   90.00000000
_cell_angle_gamma   90.00000000
_symmetry_Int_Tables_number   99
_chemical_formula_structural   V4Fe8Si4C
_chemical_formula_sum   'V4 Fe8 Si4 C1'
_cell_volume   771.52653637
_cell_formula_units_Z   1
loop_
 _symmetry_equiv_pos_site_id
 _symmetry_equiv_pos_as_xyz
  1  'x, y, z'
  2  '-y, x, z'
  3  '-x, -y, z'
  4  'y, -x, z'
  5  '-x, y, z'
  6  'y, x, z'
  7  'x, -y, z'
  8  '-y, -x, z'
loop_
 _atom_site_type_symbol
 _atom_site_label
 _atom_site_symmetry_multiplicity
 _atom_site_fract_x
 _atom_site_fract_y
 _atom_site_fract_z
 _atom_site_occupancy
  V  V0  2  0.00000000  0.50000000  0.91268000  1.0
  V  V1  1  0.00000000  0.00000000  0.02911000  1.0
  V  V2  1  0.50000000  0.50000000  0.02911000  1.0
  Fe  Fe3  4  0.25000000  0.25000000  0.97089000  1.0
  Fe  Fe4  4  0.25000000  0.75000000  0.08732000  1.0
  Si  Si5  2  0.00000000  0.50000000  0.02911000  1.0
  Si  Si6  1  0.00000000  0.00000000  0.91268000  1.0
  Si  Si7  1  0.50000000  0.50000000  0.91268000  1.0
  C  C8  1  0.00000000  0.00000000  0.12034000  1.0
