# generated using pymatgen
data_LiHfSnPd
_symmetry_space_group_name_H-M   'P 1'
_cell_length_a   6.67688000
_cell_length_b   6.67688000
_cell_length_c   25.00770000
_cell_angle_alpha   90.00000000
_cell_angle_beta   90.00000000
_cell_angle_gamma   90.00000000
_symmetry_Int_Tables_number   1
_chemical_formula_structural   LiHfSnPd
_chemical_formula_sum   'Li4 Hf4 Sn4 Pd4'
_cell_volume   1114.86143495
_cell_formula_units_Z   4
loop_
 _symmetry_equiv_pos_site_id
 _symmetry_equiv_pos_as_xyz
  1  'x, y, z'
loop_
 _atom_site_type_symbol
 _atom_site_label
 _atom_site_symmetry_multiplicity
 _atom_site_fract_x
 _atom_site_fract_y
 _atom_site_fract_z
 _atom_site_occupancy
  Li  Li0  1  0.50000000  0.00000000  0.89988000  1
  Li  Li1  1  0.00000000  0.00000000  0.03386000  1
  Li  Li2  1  0.50000000  0.50000000  0.03427000  1
  Li  Li3  1  1.00000000  0.50000000  0.89988000  1
  Hf  Hf4  1  0.00000000  0.00000000  0.89988000  1
  Hf  Hf5  1  0.50000000  0.00000000  0.03760000  1
  Hf  Hf6  1  1.00000000  0.50000000  0.03760000  1
  Hf  Hf7  1  0.50000000  0.50000000  0.89988000  1
  Sn  Sn8  1  0.75000000  0.25000000  0.96663000  1
  Sn  Sn9  1  0.24952000  0.24952000  0.10676000  1
  Sn  Sn10  1  0.75048000  0.75048000  0.10676000  1
  Sn  Sn11  1  0.25000000  0.75000000  0.96663000  1
  Pd  Pd12  1  0.75000000  0.75000000  0.96663000  1
  Pd  Pd13  1  0.24987000  0.75013000  0.09076000  1
  Pd  Pd14  1  0.75013000  0.24987000  0.09076000  1
  Pd  Pd15  1  0.25000000  0.25000000  0.96663000  1
