# generated using pymatgen
data_Ti8Co16Si8CO
_symmetry_space_group_name_H-M   'P 1'
_cell_length_a   8.14881000
_cell_length_b   5.76208000
_cell_length_c   26.11160000
_cell_angle_alpha   90.00000000
_cell_angle_beta   90.00000000
_cell_angle_gamma   90.00000000
_symmetry_Int_Tables_number   1
_chemical_formula_structural   Ti8Co16Si8CO
_chemical_formula_sum   'Ti8 Co16 Si8 C1 O1'
_cell_volume   1226.04655026
_cell_formula_units_Z   1
loop_
 _symmetry_equiv_pos_site_id
 _symmetry_equiv_pos_as_xyz
  1  'x, y, z'
loop_
 _atom_site_type_symbol
 _atom_site_label
 _atom_site_symmetry_multiplicity
 _atom_site_fract_x
 _atom_site_fract_y
 _atom_site_fract_z
 _atom_site_occupancy
  Ti  Ti0  1  0.00000000  0.00000000  0.11703000  1.0
  Ti  Ti1  1  0.25000000  0.50000000  0.03901000  1.0
  Ti  Ti2  1  0.75000000  0.50000000  0.03901000  1.0
  Ti  Ti3  1  0.50000000  1.00000000  0.11703000  1.0
  Ti  Ti4  1  0.50000000  0.00091000  0.96226000  1.0
  Ti  Ti5  1  0.74463000  0.50489000  0.87924000  1.0
  Ti  Ti6  1  0.25537000  0.50489000  0.87924000  1.0
  Ti  Ti7  1  0.00000000  0.00029000  0.96090000  1.0
  Co  Co8  1  0.00000000  0.25000000  0.03901000  1.0
  Co  Co9  1  0.50000000  0.75000000  0.03901000  1.0
  Co  Co10  1  0.00000000  0.75000000  0.03901000  1.0
  Co  Co11  1  0.50000000  0.25000000  0.03901000  1.0
  Co  Co12  1  0.75000000  0.75000000  0.11703000  1.0
  Co  Co13  1  0.25000000  0.25000000  0.11703000  1.0
  Co  Co14  1  0.75000000  0.25000000  0.11703000  1.0
  Co  Co15  1  0.25000000  0.75000000  0.11703000  1.0
  Co  Co16  1  0.50000000  0.23462000  0.88892000  1.0
  Co  Co17  1  0.00000000  0.76059000  0.89029000  1.0
  Co  Co18  1  0.50000000  0.76227000  0.88893000  1.0
  Co  Co19  1  0.00000000  0.25639000  0.88107000  1.0
  Co  Co20  1  0.25027000  0.74061000  0.96074000  1.0
  Co  Co21  1  0.75311000  0.25813000  0.95951000  1.0
  Co  Co22  1  0.24689000  0.25813000  0.95951000  1.0
  Co  Co23  1  0.74973000  0.74061000  0.96074000  1.0
  Si  Si24  1  0.75000000  1.00000000  0.03901000  1.0
  Si  Si25  1  0.00000000  0.50000000  0.11703000  1.0
  Si  Si26  1  0.25000000  1.00000000  0.03901000  1.0
  Si  Si27  1  0.50000000  0.50000000  0.11703000  1.0
  Si  Si28  1  0.25076000  0.99465000  0.88521000  1.0
  Si  Si29  1  0.50000000  0.49936000  0.95953000  1.0
  Si  Si30  1  0.74924000  0.99465000  0.88521000  1.0
  Si  Si31  1  0.00000000  0.49880000  0.95995000  1.0
  C  C32  1  0.00000000  0.35559000  0.81755000  1.0
  O  O33  1  0.00000000  0.39729000  0.77364000  1.0
