# generated using pymatgen
data_Ti8Co16Si8CO
_symmetry_space_group_name_H-M   Pm
_cell_length_a   5.76208000
_cell_length_b   8.14881000
_cell_length_c   26.11160000
_cell_angle_alpha   90.00000000
_cell_angle_beta   90.00000000
_cell_angle_gamma   90.00000000
_symmetry_Int_Tables_number   6
_chemical_formula_structural   Ti8Co16Si8CO
_chemical_formula_sum   'Ti8 Co16 Si8 C1 O1'
_cell_volume   1226.04655026
_cell_formula_units_Z   1
loop_
 _symmetry_equiv_pos_site_id
 _symmetry_equiv_pos_as_xyz
  1  'x, y, z'
  2  'x, -y, z'
loop_
 _atom_site_type_symbol
 _atom_site_label
 _atom_site_symmetry_multiplicity
 _atom_site_fract_x
 _atom_site_fract_y
 _atom_site_fract_z
 _atom_site_occupancy
  Ti  Ti0  2  0.50000000  0.25000000  0.96099000  1.0
  Ti  Ti1  2  0.50489000  0.25537000  0.12076000  1.0
  Ti  Ti2  1  -0.00000000  0.50000000  0.88297000  1.0
  Ti  Ti3  1  0.00000000  0.00000000  0.88297000  1.0
  Ti  Ti4  1  0.00029000  0.00000000  0.03910000  1.0
  Ti  Ti5  1  0.00091000  0.50000000  0.03774000  1.0
  Co  Co6  2  0.25000000  0.25000000  0.88297000  1.0
  Co  Co7  2  0.25813000  0.24689000  0.04049000  1.0
  Co  Co8  2  0.74061000  0.25027000  0.03926000  1.0
  Co  Co9  2  0.75000000  0.25000000  0.88297000  1.0
  Co  Co10  1  0.23462000  0.50000000  0.11108000  1.0
  Co  Co11  1  0.25000000  0.00000000  0.96099000  1.0
  Co  Co12  1  0.25000000  0.50000000  0.96099000  1.0
  Co  Co13  1  0.25639000  0.00000000  0.11893000  1.0
  Co  Co14  1  0.75000000  0.00000000  0.96099000  1.0
  Co  Co15  1  0.75000000  0.50000000  0.96099000  1.0
  Co  Co16  1  0.76059000  0.00000000  0.10971000  1.0
  Co  Co17  1  0.76227000  0.50000000  0.11107000  1.0
  Si  Si18  2  -0.00000000  0.25000000  0.96099000  1.0
  Si  Si19  2  0.99465000  0.25076000  0.11479000  1.0
  Si  Si20  1  0.49880000  0.00000000  0.04005000  1.0
  Si  Si21  1  0.49936000  0.50000000  0.04047000  1.0
  Si  Si22  1  0.50000000  0.00000000  0.88297000  1.0
  Si  Si23  1  0.50000000  0.50000000  0.88297000  1.0
  C  C24  1  0.35559000  0.00000000  0.18245000  1.0
  O  O25  1  0.39729000  0.00000000  0.22636000  1.0
