data_image0
_chemical_formula_structural       Sc16Pd16CO
_chemical_formula_sum              "Sc16 Pd16 C1 O1"
_cell_length_a       6.66071
_cell_length_b       9.41967
_cell_length_c       27.0648
_cell_angle_alpha    90
_cell_angle_beta     90
_cell_angle_gamma    90

_space_group_name_H-M_alt    "P 1"
_space_group_IT_number       1

loop_
  _space_group_symop_operation_xyz
  'x, y, z'

loop_
  _atom_site_type_symbol
  _atom_site_label
  _atom_site_symmetry_multiplicity
  _atom_site_fract_x
  _atom_site_fract_y
  _atom_site_fract_z
  _atom_site_occupancy
  Sc  Sc1       1.0  0.25000  0.25000  0.86948  1.0000
  Sc  Sc2       1.0  0.25000  0.00000  0.95649  1.0000
  Sc  Sc3       1.0  0.24994  0.24912  0.04236  1.0000
  Sc  Sc4       1.0  0.25007  0.00000  0.13140  1.0000
  Sc  Sc5       1.0  0.25000  0.75000  0.86948  1.0000
  Sc  Sc6       1.0  0.25000  0.50000  0.95649  1.0000
  Sc  Sc7       1.0  0.24994  0.75088  0.04236  1.0000
  Sc  Sc8       1.0  0.24993  0.50000  0.12945  1.0000
  Sc  Sc9       1.0  0.75000  0.25000  0.86948  1.0000
  Sc  Sc10      1.0  0.75000  0.00000  0.95649  1.0000
  Sc  Sc11      1.0  0.74993  0.24932  0.04239  1.0000
  Sc  Sc12      1.0  0.74988  1.00000  0.13139  1.0000
  Sc  Sc13      1.0  0.75000  0.75000  0.86948  1.0000
  Sc  Sc14      1.0  0.75000  0.50000  0.95649  1.0000
  Sc  Sc15      1.0  0.74993  0.75068  0.04239  1.0000
  Sc  Sc16      1.0  0.74993  0.50000  0.12961  1.0000
  Pd  Pd1       1.0  0.00000  0.00000  0.86948  1.0000
  Pd  Pd2       1.0  0.00000  0.25000  0.95649  1.0000
  Pd  Pd3       1.0  0.99676  0.00000  0.04366  1.0000
  Pd  Pd4       1.0  0.99929  0.25197  0.12193  1.0000
  Pd  Pd5       1.0  0.00000  0.50000  0.86948  1.0000
  Pd  Pd6       1.0  0.00000  0.75000  0.95649  1.0000
  Pd  Pd7       1.0  0.00018  0.50000  0.04348  1.0000
  Pd  Pd8       1.0  0.99928  0.74803  0.12193  1.0000
  Pd  Pd9       1.0  0.50000  0.00000  0.86948  1.0000
  Pd  Pd10      1.0  0.50000  0.25000  0.95649  1.0000
  Pd  Pd11      1.0  0.50308  0.00000  0.04364  1.0000
  Pd  Pd12      1.0  0.50056  0.25208  0.12192  1.0000
  Pd  Pd13      1.0  0.50000  0.50000  0.86948  1.0000
  Pd  Pd14      1.0  0.50000  0.75000  0.95649  1.0000
  Pd  Pd15      1.0  0.49964  0.50000  0.04348  1.0000
  Pd  Pd16      1.0  0.50056  0.74792  0.12192  1.0000
  C   C1        1.0  0.25229  1.00000  0.21634  1.0000
  O   O1        1.0  0.25260  0.00000  0.25883  1.0000
