# generated using pymatgen
data_Sc16Pd16CO
_symmetry_space_group_name_H-M   'P 1'
_cell_length_a   9.41967000
_cell_length_b   6.66071000
_cell_length_c   27.06480000
_cell_angle_alpha   90.00000000
_cell_angle_beta   90.00000000
_cell_angle_gamma   90.00000000
_symmetry_Int_Tables_number   1
_chemical_formula_structural   Sc16Pd16CO
_chemical_formula_sum   'Sc16 Pd16 C1 O1'
_cell_volume   1698.09129600
_cell_formula_units_Z   1
loop_
 _symmetry_equiv_pos_site_id
 _symmetry_equiv_pos_as_xyz
  1  'x, y, z'
loop_
 _atom_site_type_symbol
 _atom_site_label
 _atom_site_symmetry_multiplicity
 _atom_site_fract_x
 _atom_site_fract_y
 _atom_site_fract_z
 _atom_site_occupancy
  Sc  Sc0  1  0.25000000  0.25000000  0.13052000  1.0
  Sc  Sc1  1  0.00000000  0.25000000  0.04351000  1.0
  Sc  Sc2  1  0.24912000  0.24994000  0.95764000  1.0
  Sc  Sc3  1  0.00000000  0.25007000  0.86860000  1.0
  Sc  Sc4  1  0.75000000  0.25000000  0.13052000  1.0
  Sc  Sc5  1  0.50000000  0.25000000  0.04351000  1.0
  Sc  Sc6  1  0.75088000  0.24994000  0.95764000  1.0
  Sc  Sc7  1  0.50000000  0.24993000  0.87055000  1.0
  Sc  Sc8  1  0.25000000  0.75000000  0.13052000  1.0
  Sc  Sc9  1  0.00000000  0.75000000  0.04351000  1.0
  Sc  Sc10  1  0.24932000  0.74993000  0.95761000  1.0
  Sc  Sc11  1  0.00000000  0.74988000  0.86861000  1.0
  Sc  Sc12  1  0.75000000  0.75000000  0.13052000  1.0
  Sc  Sc13  1  0.50000000  0.75000000  0.04351000  1.0
  Sc  Sc14  1  0.75068000  0.74993000  0.95761000  1.0
  Sc  Sc15  1  0.50000000  0.74993000  0.87039000  1.0
  Pd  Pd16  1  0.00000000  0.00000000  0.13052000  1.0
  Pd  Pd17  1  0.25000000  0.00000000  0.04351000  1.0
  Pd  Pd18  1  0.00000000  0.99676000  0.95634000  1.0
  Pd  Pd19  1  0.25197000  0.99929000  0.87807000  1.0
  Pd  Pd20  1  0.50000000  0.00000000  0.13052000  1.0
  Pd  Pd21  1  0.75000000  0.00000000  0.04351000  1.0
  Pd  Pd22  1  0.50000000  0.00018000  0.95652000  1.0
  Pd  Pd23  1  0.74803000  0.99929000  0.87807000  1.0
  Pd  Pd24  1  0.00000000  0.50000000  0.13052000  1.0
  Pd  Pd25  1  0.25000000  0.50000000  0.04351000  1.0
  Pd  Pd26  1  0.00000000  0.50308000  0.95636000  1.0
  Pd  Pd27  1  0.25208000  0.50056000  0.87808000  1.0
  Pd  Pd28  1  0.50000000  0.50000000  0.13052000  1.0
  Pd  Pd29  1  0.75000000  0.50000000  0.04351000  1.0
  Pd  Pd30  1  0.50000000  0.49964000  0.95652000  1.0
  Pd  Pd31  1  0.74792000  0.50056000  0.87808000  1.0
  C  C32  1  0.00000000  0.25229000  0.78366000  1.0
  O  O33  1  0.00000000  0.25260000  0.74117000  1.0
