# generated using pymatgen
data_Sc16Pd16CO
_symmetry_space_group_name_H-M   Pm
_cell_length_a   6.66071000
_cell_length_b   9.41967000
_cell_length_c   27.06480000
_cell_angle_alpha   90.00000000
_cell_angle_beta   90.00000000
_cell_angle_gamma   90.00000000
_symmetry_Int_Tables_number   6
_chemical_formula_structural   Sc16Pd16CO
_chemical_formula_sum   'Sc16 Pd16 C1 O1'
_cell_volume   1698.09129600
_cell_formula_units_Z   1
loop_
 _symmetry_equiv_pos_site_id
 _symmetry_equiv_pos_as_xyz
  1  'x, y, z'
  2  'x, -y, z'
loop_
 _atom_site_type_symbol
 _atom_site_label
 _atom_site_symmetry_multiplicity
 _atom_site_fract_x
 _atom_site_fract_y
 _atom_site_fract_z
 _atom_site_occupancy
  Sc  Sc0  2  0.24994000  0.24912000  0.04236000  1.0
  Sc  Sc1  2  0.25000000  0.25000000  0.86948000  1.0
  Sc  Sc2  2  0.74993000  0.24932000  0.04239000  1.0
  Sc  Sc3  2  0.75000000  0.25000000  0.86948000  1.0
  Sc  Sc4  1  0.24993000  0.50000000  0.12945000  1.0
  Sc  Sc5  1  0.25000000  0.00000000  0.95649000  1.0
  Sc  Sc6  1  0.25000000  0.50000000  0.95649000  1.0
  Sc  Sc7  1  0.25007000  0.00000000  0.13140000  1.0
  Sc  Sc8  1  0.74988000  0.00000000  0.13139000  1.0
  Sc  Sc9  1  0.74993000  0.50000000  0.12961000  1.0
  Sc  Sc10  1  0.75000000  0.00000000  0.95649000  1.0
  Sc  Sc11  1  0.75000000  0.50000000  0.95649000  1.0
  Pd  Pd12  2  0.00000000  0.25000000  0.95649000  1.0
  Pd  Pd13  2  0.50000000  0.25000000  0.95649000  1.0
  Pd  Pd14  2  0.50056000  0.25208000  0.12192000  1.0
  Pd  Pd15  2  0.99929000  0.25197000  0.12193000  1.0
  Pd  Pd16  1  0.00000000  0.00000000  0.86948000  1.0
  Pd  Pd17  1  0.00000000  0.50000000  0.86948000  1.0
  Pd  Pd18  1  0.00018000  0.50000000  0.04348000  1.0
  Pd  Pd19  1  0.49964000  0.50000000  0.04348000  1.0
  Pd  Pd20  1  0.50000000  0.00000000  0.86948000  1.0
  Pd  Pd21  1  0.50000000  0.50000000  0.86948000  1.0
  Pd  Pd22  1  0.50308000  0.00000000  0.04364000  1.0
  Pd  Pd23  1  0.99676000  0.00000000  0.04366000  1.0
  C  C24  1  0.25229000  0.00000000  0.21634000  1.0
  O  O25  1  0.25260000  0.00000000  0.25883000  1.0
