# generated using pymatgen
data_Li2PbAu
_symmetry_space_group_name_H-M   'P 1'
_cell_length_a   4.82275109
_cell_length_b   4.82275109
_cell_length_c   25.11530000
_cell_angle_alpha   90.00000000
_cell_angle_beta   90.00000000
_cell_angle_gamma   90.00000000
_symmetry_Int_Tables_number   1
_chemical_formula_structural   Li2PbAu
_chemical_formula_sum   'Li4 Pb2 Au2'
_cell_volume   584.15495641
_cell_formula_units_Z   2
loop_
 _symmetry_equiv_pos_site_id
 _symmetry_equiv_pos_as_xyz
  1  'x, y, z'
loop_
 _atom_site_type_symbol
 _atom_site_label
 _atom_site_symmetry_multiplicity
 _atom_site_fract_x
 _atom_site_fract_y
 _atom_site_fract_z
 _atom_site_occupancy
  Li  Li0  1  0.00000000  0.00000000  0.03395000  1.0
  Li  Li1  1  0.50000000  0.50000000  0.90311000  1.0
  Li  Li2  1  0.00000000  0.50000000  0.96401000  1.0
  Li  Li3  1  0.50000000  0.00000000  0.10184000  1.0
  Pb  Pb4  1  0.00000000  0.00000000  0.89271000  1.0
  Pb  Pb5  1  0.50000000  0.50000000  0.03395000  1.0
  Au  Au6  1  0.00000000  0.50000000  0.10184000  1.0
  Au  Au7  1  0.50000000  0.00000000  0.96329000  1.0
