# generated using pymatgen
data_Li16Sn8Ge8C
_symmetry_space_group_name_H-M   P1
_cell_length_a   6.92564000
_cell_length_b   9.79433000
_cell_length_c   27.34580000
_cell_angle_alpha   90.00000000
_cell_angle_beta   90.00000000
_cell_angle_gamma   90.00000000
_symmetry_Int_Tables_number   1
_chemical_formula_structural   Li16Sn8Ge8C
_chemical_formula_sum   'Li16 Sn8 Ge8 C1'
_cell_volume   1854.92040462
_cell_formula_units_Z   1
loop_
 _symmetry_equiv_pos_site_id
 _symmetry_equiv_pos_as_xyz
  1  'x, y, z'
loop_
 _atom_site_type_symbol
 _atom_site_label
 _atom_site_symmetry_multiplicity
 _atom_site_fract_x
 _atom_site_fract_y
 _atom_site_fract_z
 _atom_site_occupancy
  Li  Li0  1  0.00000000  0.25000000  0.95523000  1.0
  Li  Li1  1  0.00000000  0.75000000  0.95523000  1.0
  Li  Li2  1  0.02199000  0.18993000  0.15825000  1.0
  Li  Li3  1  0.24567000  0.90205000  0.14443000  1.0
  Li  Li4  1  0.25000000  0.00000000  0.95523000  1.0
  Li  Li5  1  0.25000000  0.50000000  0.95523000  1.0
  Li  Li6  1  0.47074000  0.48597000  0.15114000  1.0
  Li  Li7  1  0.47273000  0.41921000  0.04807000  1.0
  Li  Li8  1  0.50000000  0.00000000  0.86569000  1.0
  Li  Li9  1  0.50000000  0.50000000  0.86569000  1.0
  Li  Li10  1  0.53603000  0.94561000  0.06121000  1.0
  Li  Li11  1  0.71550000  0.67410000  0.04334000  1.0
  Li  Li12  1  0.75000000  0.25000000  0.86569000  1.0
  Li  Li13  1  0.75000000  0.75000000  0.86569000  1.0
  Li  Li14  1  0.83974000  0.14916000  0.04151000  1.0
  Li  Li15  1  0.99066000  0.58179000  0.13131000  1.0
  Sn  Sn16  1  0.00000000  0.00000000  0.86569000  1.0
  Sn  Sn17  1  0.00000000  0.50000000  0.86569000  1.0
  Sn  Sn18  1  0.01747000  0.44938000  0.03773000  1.0
  Sn  Sn19  1  0.09757000  0.86594000  0.04411000  1.0
  Sn  Sn20  1  0.42291000  0.18581000  0.12871000  1.0
  Sn  Sn21  1  0.50000000  0.25000000  0.95523000  1.0
  Sn  Sn22  1  0.50000000  0.75000000  0.95523000  1.0
  Sn  Sn23  1  0.64937000  0.75172000  0.14886000  1.0
  Ge  Ge24  1  0.25000000  0.25000000  0.86569000  1.0
  Ge  Ge25  1  0.25000000  0.75000000  0.86569000  1.0
  Ge  Ge26  1  0.25081000  0.16918000  0.03414000  1.0
  Ge  Ge27  1  0.33866000  0.67748000  0.09211000  1.0
  Ge  Ge28  1  0.75000000  0.00000000  0.95523000  1.0
  Ge  Ge29  1  0.75000000  0.50000000  0.95523000  1.0
  Ge  Ge30  1  0.77066000  0.34567000  0.11745000  1.0
  Ge  Ge31  1  0.87203000  0.96861000  0.12552000  1.0
  C  C32  1  0.74309000  0.14380000  0.11629000  1.0
