# generated using pymatgen
data_Li8Al4Ag4C
_symmetry_space_group_name_H-M   Cmm2
_cell_length_a   8.97790853
_cell_length_b   8.97790853
_cell_length_c   24.76130000
_cell_angle_alpha   90.00000000
_cell_angle_beta   90.00000000
_cell_angle_gamma   90.00000000
_symmetry_Int_Tables_number   35
_chemical_formula_structural   Li8Al4Ag4C
_chemical_formula_sum   'Li16 Al8 Ag8 C2'
_cell_volume   1995.83113951
_cell_formula_units_Z   2
loop_
 _symmetry_equiv_pos_site_id
 _symmetry_equiv_pos_as_xyz
  1  'x, y, z'
  2  '-x, -y, z'
  3  '-x, y, z'
  4  'x, -y, z'
  5  'x+1/2, y+1/2, z'
  6  '-x+1/2, -y+1/2, z'
  7  '-x+1/2, y+1/2, z'
  8  'x+1/2, -y+1/2, z'
loop_
 _atom_site_type_symbol
 _atom_site_label
 _atom_site_symmetry_multiplicity
 _atom_site_fract_x
 _atom_site_fract_y
 _atom_site_fract_z
 _atom_site_occupancy
  Li  Li0  4  0.00000000  0.25000000  0.96795000  1.0
  Li  Li1  4  0.23601000  0.00000000  0.11845000  1.0
  Li  Li2  4  0.25000000  0.25000000  0.90386000  1.0
  Li  Li3  2  0.00000000  0.00000000  0.03136000  1.0
  Li  Li4  2  0.00000000  0.50000000  0.03869000  1.0
  Al  Al5  4  0.25000000  0.25000000  0.03653000  1.0
  Al  Al6  2  0.00000000  0.00000000  0.90386000  1.0
  Al  Al7  2  0.00000000  0.50000000  0.90386000  1.0
  Ag  Ag8  4  0.00000000  0.23114000  0.09488000  1.0
  Ag  Ag9  4  0.25000000  0.00000000  0.96795000  1.0
  C  C10  2  0.00000000  0.00000000  0.11791000  1.0
