# generated using pymatgen
data_Li8Ag16Sn8CO
_symmetry_space_group_name_H-M   Pmm2
_cell_length_a   6.77071000
_cell_length_b   9.57522000
_cell_length_c   27.18140000
_cell_angle_alpha   90.00000000
_cell_angle_beta   90.00000000
_cell_angle_gamma   90.00000000
_symmetry_Int_Tables_number   25
_chemical_formula_structural   Li8Ag16Sn8CO
_chemical_formula_sum   'Li8 Ag16 Sn8 C1 O1'
_cell_volume   1762.19837103
_cell_formula_units_Z   1
loop_
 _symmetry_equiv_pos_site_id
 _symmetry_equiv_pos_as_xyz
  1  'x, y, z'
  2  '-x, -y, z'
  3  '-x, y, z'
  4  'x, -y, z'
loop_
 _atom_site_type_symbol
 _atom_site_label
 _atom_site_symmetry_multiplicity
 _atom_site_fract_x
 _atom_site_fract_y
 _atom_site_fract_z
 _atom_site_occupancy
  Li  Li0  2  0.00000000  0.24798000  0.03919000  1.0
  Li  Li1  2  0.00000000  0.25000000  0.86790000  1.0
  Li  Li2  1  0.50000000  0.00000000  0.13063000  1.0
  Li  Li3  1  0.50000000  0.00000000  0.95597000  1.0
  Li  Li4  1  0.50000000  0.50000000  0.12923000  1.0
  Li  Li5  1  0.50000000  0.50000000  0.95597000  1.0
  Ag  Ag6  4  0.23178000  0.25220000  0.12534000  1.0
  Ag  Ag7  4  0.25000000  0.25000000  0.95597000  1.0
  Ag  Ag8  2  0.22883000  0.50000000  0.04957000  1.0
  Ag  Ag9  2  0.23311000  0.00000000  0.04959000  1.0
  Ag  Ag10  2  0.25000000  0.00000000  0.86790000  1.0
  Ag  Ag11  2  0.25000000  0.50000000  0.86790000  1.0
  Sn  Sn12  2  0.50000000  0.25000000  0.86790000  1.0
  Sn  Sn13  2  0.50000000  0.25064000  0.04383000  1.0
  Sn  Sn14  1  0.00000000  0.00000000  0.14315000  1.0
  Sn  Sn15  1  0.00000000  0.00000000  0.95597000  1.0
  Sn  Sn16  1  0.00000000  0.50000000  0.14542000  1.0
  Sn  Sn17  1  0.00000000  0.50000000  0.95597000  1.0
  C  C18  1  0.50000000  0.00000000  0.20763000  1.0
  O  O19  1  0.50000000  0.00000000  0.24960000  1.0
