# generated using pymatgen
data_Ti8Ag8CO
_symmetry_space_group_name_H-M   'P 1'
_cell_length_a   5.67942000
_cell_length_b   5.67942000
_cell_length_c   26.52170000
_cell_angle_alpha   90.00000000
_cell_angle_beta   90.00000000
_cell_angle_gamma   90.00000000
_symmetry_Int_Tables_number   1
_chemical_formula_structural   Ti8Ag8CO
_chemical_formula_sum   'Ti8 Ag8 C1 O1'
_cell_volume   855.47895682
_cell_formula_units_Z   1
loop_
 _symmetry_equiv_pos_site_id
 _symmetry_equiv_pos_as_xyz
  1  'x, y, z'
loop_
 _atom_site_type_symbol
 _atom_site_label
 _atom_site_symmetry_multiplicity
 _atom_site_fract_x
 _atom_site_fract_y
 _atom_site_fract_z
 _atom_site_occupancy
  Ti  Ti0  1  0.00000000  0.00000000  0.97481000  1.0
  Ti  Ti1  1  0.00000000  0.00000000  0.13874000  1.0
  Ti  Ti2  1  0.00000000  0.50000000  0.97481000  1.0
  Ti  Ti3  1  0.00000000  0.50000000  0.13874000  1.0
  Ti  Ti4  1  0.50000000  0.00000000  0.97481000  1.0
  Ti  Ti5  1  0.50000000  0.00000000  0.13874000  1.0
  Ti  Ti6  1  0.50000000  0.50000000  0.97481000  1.0
  Ti  Ti7  1  0.50000000  0.50000000  0.13874000  1.0
  Ag  Ag8  1  0.75000000  0.75000000  0.89284000  1.0
  Ag  Ag9  1  0.75000000  0.75000000  0.05677000  1.0
  Ag  Ag10  1  0.75000000  0.25000000  0.89284000  1.0
  Ag  Ag11  1  0.75000000  0.25000000  0.05677000  1.0
  Ag  Ag12  1  0.25000000  0.75000000  0.89284000  1.0
  Ag  Ag13  1  0.25000000  0.75000000  0.05677000  1.0
  Ag  Ag14  1  0.25000000  0.25000000  0.89284000  1.0
  Ag  Ag15  1  0.25000000  0.25000000  0.05677000  1.0
  C  C16  1  0.00000000  0.00000000  0.21038000  1.0
  O  O17  1  0.00000000  0.00000000  0.25374000  1.0
