# generated using pymatgen
data_Ti8Co16Si8C
_symmetry_space_group_name_H-M   Pmm2
_cell_length_a   5.76208000
_cell_length_b   8.14881000
_cell_length_c   26.11160000
_cell_angle_alpha   90.00000000
_cell_angle_beta   90.00000000
_cell_angle_gamma   90.00000000
_symmetry_Int_Tables_number   25
_chemical_formula_structural   Ti8Co16Si8C
_chemical_formula_sum   'Ti8 Co16 Si8 C1'
_cell_volume   1226.04655026
_cell_formula_units_Z   1
loop_
 _symmetry_equiv_pos_site_id
 _symmetry_equiv_pos_as_xyz
  1  'x, y, z'
  2  '-x, -y, z'
  3  '-x, y, z'
  4  'x, -y, z'
loop_
 _atom_site_type_symbol
 _atom_site_label
 _atom_site_symmetry_multiplicity
 _atom_site_fract_x
 _atom_site_fract_y
 _atom_site_fract_z
 _atom_site_occupancy
  Ti  Ti0  2  0.50000000  0.25000000  0.96099000  1.0
  Ti  Ti1  2  0.50000000  0.25738000  0.12155000  1.0
  Ti  Ti2  1  0.00000000  0.00000000  0.04039000  1.0
  Ti  Ti3  1  0.00000000  0.00000000  0.88297000  1.0
  Ti  Ti4  1  0.00000000  0.50000000  0.03759000  1.0
  Ti  Ti5  1  0.00000000  0.50000000  0.88297000  1.0
  Co  Co6  4  0.25000000  0.25000000  0.88297000  1.0
  Co  Co7  4  0.25541000  0.24969000  0.03997000  1.0
  Co  Co8  2  0.23202000  0.50000000  0.11186000  1.0
  Co  Co9  2  0.25000000  0.00000000  0.96099000  1.0
  Co  Co10  2  0.25000000  0.50000000  0.96099000  1.0
  Co  Co11  2  0.28430000  0.00000000  0.11325000  1.0
  Si  Si12  2  0.00000000  0.25000000  0.96099000  1.0
  Si  Si13  2  0.00000000  0.25084000  0.11559000  1.0
  Si  Si14  1  0.50000000  0.00000000  0.03679000  1.0
  Si  Si15  1  0.50000000  0.00000000  0.88297000  1.0
  Si  Si16  1  0.50000000  0.50000000  0.04084000  1.0
  Si  Si17  1  0.50000000  0.50000000  0.88297000  1.0
  C  C18  1  0.00000000  0.00000000  0.13570000  1.0
