# generated using pymatgen
data_Li8Y8Ag8Pb8C
_symmetry_space_group_name_H-M   P1
_cell_length_a   7.20907000
_cell_length_b   10.19520000
_cell_length_c   27.64640000
_cell_angle_alpha   90.00000000
_cell_angle_beta   90.00000000
_cell_angle_gamma   90.00000000
_symmetry_Int_Tables_number   1
_chemical_formula_structural   Li8Y8Ag8Pb8C
_chemical_formula_sum   'Li8 Y8 Ag8 Pb8 C1'
_cell_volume   2031.95263185
_cell_formula_units_Z   1
loop_
 _symmetry_equiv_pos_site_id
 _symmetry_equiv_pos_as_xyz
  1  'x, y, z'
loop_
 _atom_site_type_symbol
 _atom_site_label
 _atom_site_symmetry_multiplicity
 _atom_site_fract_x
 _atom_site_fract_y
 _atom_site_fract_z
 _atom_site_occupancy
  Li  Li0  1  0.25000000  0.00000000  0.95390000  1.0
  Li  Li1  1  0.25000000  0.50000000  0.95390000  1.0
  Li  Li2  1  0.28047000  0.51140000  0.14137000  1.0
  Li  Li3  1  0.28311000  0.97811000  0.14161000  1.0
  Li  Li4  1  0.73969000  0.24783000  0.04443000  1.0
  Li  Li5  1  0.75000000  0.25000000  0.86171000  1.0
  Li  Li6  1  0.75000000  0.75000000  0.86171000  1.0
  Li  Li7  1  0.75757000  0.74985000  0.04154000  1.0
  Y  Y8  1  0.17487000  0.24863000  0.05967000  1.0
  Y  Y9  1  0.25000000  0.25000000  0.86171000  1.0
  Y  Y10  1  0.25000000  0.75000000  0.86171000  1.0
  Y  Y11  1  0.27419000  0.74668000  0.04761000  1.0
  Y  Y12  1  0.75000000  0.00000000  0.95390000  1.0
  Y  Y13  1  0.75000000  0.50000000  0.95390000  1.0
  Y  Y14  1  0.81480000  0.44233000  0.13480000  1.0
  Y  Y15  1  0.81810000  0.04797000  0.13328000  1.0
  Ag  Ag16  1  0.00000000  0.00000000  0.86171000  1.0
  Ag  Ag17  1  0.00000000  0.50000000  0.86171000  1.0
  Ag  Ag18  1  0.00346000  0.52917000  0.04187000  1.0
  Ag  Ag19  1  0.01097000  0.96841000  0.04044000  1.0
  Ag  Ag20  1  0.47703000  0.24366000  0.13406000  1.0
  Ag  Ag21  1  0.50000000  0.25000000  0.95390000  1.0
  Ag  Ag22  1  0.50000000  0.75000000  0.95390000  1.0
  Ag  Ag23  1  0.57514000  0.74489000  0.12718000  1.0
  Pb  Pb24  1  0.00000000  0.25000000  0.95390000  1.0
  Pb  Pb25  1  0.00000000  0.75000000  0.95390000  1.0
  Pb  Pb26  1  0.00460000  0.74444000  0.13887000  1.0
  Pb  Pb27  1  0.11494000  0.24491000  0.18695000  1.0
  Pb  Pb28  1  0.50000000  0.00000000  0.86171000  1.0
  Pb  Pb29  1  0.50000000  0.50000000  0.86171000  1.0
  Pb  Pb30  1  0.50347000  0.00924000  0.05037000  1.0
  Pb  Pb31  1  0.50569000  0.48639000  0.05072000  1.0
  C  C32  1  0.92053000  0.24637000  0.10921000  1.0
