# generated using pymatgen
data_Li16Sb8Au8C
_symmetry_space_group_name_H-M   'P 1'
_cell_length_a   9.42638000
_cell_length_b   6.66546000
_cell_length_c   27.06980000
_cell_angle_alpha   90.00000000
_cell_angle_beta   90.00000000
_cell_angle_gamma   90.00000000
_symmetry_Int_Tables_number   1
_chemical_formula_structural   Li16Sb8Au8C
_chemical_formula_sum   'Li16 Sb8 Au8 C1'
_cell_volume   1700.82690343
_cell_formula_units_Z   1
loop_
 _symmetry_equiv_pos_site_id
 _symmetry_equiv_pos_as_xyz
  1  'x, y, z'
loop_
 _atom_site_type_symbol
 _atom_site_label
 _atom_site_symmetry_multiplicity
 _atom_site_fract_x
 _atom_site_fract_y
 _atom_site_fract_z
 _atom_site_occupancy
  Li  Li0  1  0.50000000  1.00000000  0.04353000  1.0
  Li  Li1  1  0.74999000  0.50000000  0.13058000  1.0
  Li  Li2  1  0.00000000  1.00000000  0.04353000  1.0
  Li  Li3  1  0.25001000  0.50000000  0.13058000  1.0
  Li  Li4  1  0.00000000  0.25000000  0.13058000  1.0
  Li  Li5  1  0.50000000  0.25000000  0.13058000  1.0
  Li  Li6  1  0.24999000  0.75000000  0.04353000  1.0
  Li  Li7  1  0.75001000  0.75000000  0.04353000  1.0
  Li  Li8  1  0.00000000  0.99137000  0.86935000  1.0
  Li  Li9  1  0.26002000  0.50213000  0.96114000  1.0
  Li  Li10  1  0.50000000  0.99799000  0.87704000  1.0
  Li  Li11  1  0.73998000  0.50213000  0.96114000  1.0
  Li  Li12  1  0.50000000  0.25254000  0.95328000  1.0
  Li  Li13  1  0.00000000  0.28899000  0.93857000  1.0
  Li  Li14  1  0.77851000  0.69334000  0.86655000  1.0
  Li  Li15  1  0.22149000  0.69334000  0.86655000  1.0
  Sb  Sb16  1  0.74999000  0.00000000  0.13058000  1.0
  Sb  Sb17  1  0.00000000  0.50000000  0.04353000  1.0
  Sb  Sb18  1  0.50000000  0.50000000  0.04353000  1.0
  Sb  Sb19  1  0.25001000  0.00000000  0.13058000  1.0
  Sb  Sb20  1  0.24683000  0.99253000  0.95621000  1.0
  Sb  Sb21  1  0.50000000  0.50624000  0.86474000  1.0
  Sb  Sb22  1  0.00000000  0.40835000  0.82906000  1.0
  Sb  Sb23  1  0.75317000  0.99253000  0.95621000  1.0
  Au  Au24  1  0.74999000  0.25000000  0.04353000  1.0
  Au  Au25  1  0.25001000  0.25000000  0.04353000  1.0
  Au  Au26  1  0.50000000  0.75000000  0.13058000  1.0
  Au  Au27  1  0.00000000  0.75000000  0.13058000  1.0
  Au  Au28  1  0.25244000  0.26281000  0.87775000  1.0
  Au  Au29  1  0.74756000  0.26281000  0.87775000  1.0
  Au  Au30  1  0.00000000  0.68854000  0.94827000  1.0
  Au  Au31  1  0.50000000  0.74009000  0.95603000  1.0
  C  C32  1  0.00000000  0.68611000  0.86674000  1.0
