# generated using pymatgen
data_Li16Sb8Au8C
_symmetry_space_group_name_H-M   Pm
_cell_length_a   6.66546000
_cell_length_b   9.42638000
_cell_length_c   27.06980000
_cell_angle_alpha   90.00000000
_cell_angle_beta   90.00000000
_cell_angle_gamma   90.00000000
_symmetry_Int_Tables_number   6
_chemical_formula_structural   Li16Sb8Au8C
_chemical_formula_sum   'Li16 Sb8 Au8 C1'
_cell_volume   1700.82690343
_cell_formula_units_Z   1
loop_
 _symmetry_equiv_pos_site_id
 _symmetry_equiv_pos_as_xyz
  1  'x, y, z'
  2  'x, -y, z'
loop_
 _atom_site_type_symbol
 _atom_site_label
 _atom_site_symmetry_multiplicity
 _atom_site_fract_x
 _atom_site_fract_y
 _atom_site_fract_z
 _atom_site_occupancy
  Li  Li0  2  0.50000000  0.25001000  0.86942000  1.0
  Li  Li1  2  0.50213000  0.26002000  0.03886000  1.0
  Li  Li2  2  0.69334000  0.22149000  0.13345000  1.0
  Li  Li3  2  0.75000000  0.24999000  0.95647000  1.0
  Li  Li4  1  -0.00000000  0.50000000  0.95647000  1.0
  Li  Li5  1  -0.00000000  0.00000000  0.95647000  1.0
  Li  Li6  1  0.25000000  0.00000000  0.86942000  1.0
  Li  Li7  1  0.25000000  0.50000000  0.86942000  1.0
  Li  Li8  1  0.25254000  0.50000000  0.04672000  1.0
  Li  Li9  1  0.28899000  0.00000000  0.06143000  1.0
  Li  Li10  1  0.99137000  0.00000000  0.13065000  1.0
  Li  Li11  1  0.99799000  0.50000000  0.12296000  1.0
  Sb  Sb12  2  0.00000000  0.25001000  0.86942000  1.0
  Sb  Sb13  2  0.99253000  0.24683000  0.04379000  1.0
  Sb  Sb14  1  0.40835000  0.00000000  0.17094000  1.0
  Sb  Sb15  1  0.50000000  0.00000000  0.95647000  1.0
  Sb  Sb16  1  0.50000000  0.50000000  0.95647000  1.0
  Sb  Sb17  1  0.50624000  0.50000000  0.13526000  1.0
  Au  Au18  2  0.25000000  0.25001000  0.95647000  1.0
  Au  Au19  2  0.26281000  0.25244000  0.12225000  1.0
  Au  Au20  1  0.68854000  0.00000000  0.05173000  1.0
  Au  Au21  1  0.74009000  0.50000000  0.04397000  1.0
  Au  Au22  1  0.75000000  0.00000000  0.86942000  1.0
  Au  Au23  1  0.75000000  0.50000000  0.86942000  1.0
  C  C24  1  0.68611000  0.00000000  0.13326000  1.0
