# generated using pymatgen
data_Li24Pd8CO
_symmetry_space_group_name_H-M   'P 1'
_cell_length_a   8.79589000
_cell_length_b   6.21964000
_cell_length_c   26.59690000
_cell_angle_alpha   90.00000000
_cell_angle_beta   90.00000000
_cell_angle_gamma   90.00000000
_symmetry_Int_Tables_number   1
_chemical_formula_structural   Li24Pd8CO
_chemical_formula_sum   'Li24 Pd8 C1 O1'
_cell_volume   1455.04377030
_cell_formula_units_Z   1
loop_
 _symmetry_equiv_pos_site_id
 _symmetry_equiv_pos_as_xyz
  1  'x, y, z'
loop_
 _atom_site_type_symbol
 _atom_site_label
 _atom_site_symmetry_multiplicity
 _atom_site_fract_x
 _atom_site_fract_y
 _atom_site_fract_z
 _atom_site_occupancy
  Li  Li0  1  0.00000000  0.25000000  0.04134000  1.0
  Li  Li1  1  0.50000000  0.75000000  0.04134000  1.0
  Li  Li2  1  0.00000000  0.75000000  0.04134000  1.0
  Li  Li3  1  0.50000000  0.25000000  0.04134000  1.0
  Li  Li4  1  0.75000000  0.75000000  0.12402000  1.0
  Li  Li5  1  0.25000000  0.25000000  0.12402000  1.0
  Li  Li6  1  0.75000000  0.25000000  0.12402000  1.0
  Li  Li7  1  0.25000000  0.75000000  0.12402000  1.0
  Li  Li8  1  0.75000000  0.00000000  0.04134000  1.0
  Li  Li9  1  0.00000000  0.50000000  0.12402000  1.0
  Li  Li10  1  0.25000000  0.00000000  0.04134000  1.0
  Li  Li11  1  0.50000000  0.50000000  0.12402000  1.0
  Li  Li12  1  0.50000000  0.27262000  0.86621000  1.0
  Li  Li13  1  0.00000000  0.72668000  0.86854000  1.0
  Li  Li14  1  0.50000000  0.73346000  0.86703000  1.0
  Li  Li15  1  0.00000000  0.26795000  0.86955000  1.0
  Li  Li16  1  0.25037000  0.75043000  0.96066000  1.0
  Li  Li17  1  0.75013000  0.25154000  0.96069000  1.0
  Li  Li18  1  0.24987000  0.25154000  0.96069000  1.0
  Li  Li19  1  0.74963000  0.75043000  0.96066000  1.0
  Li  Li20  1  0.24974000  0.00071000  0.88268000  1.0
  Li  Li21  1  0.50000000  0.50012000  0.95444000  1.0
  Li  Li22  1  0.75026000  0.00071000  0.88268000  1.0
  Li  Li23  1  0.00000000  0.50062000  0.95616000  1.0
  Pd  Pd24  1  0.00000000  0.00000000  0.12402000  1.0
  Pd  Pd25  1  0.25000000  0.50000000  0.04134000  1.0
  Pd  Pd26  1  0.75000000  0.50000000  0.04134000  1.0
  Pd  Pd27  1  0.50000000  0.00000000  0.12402000  1.0
  Pd  Pd28  1  0.50000000  0.00222000  0.94935000  1.0
  Pd  Pd29  1  0.74699000  0.50436000  0.88514000  1.0
  Pd  Pd30  1  0.25301000  0.50436000  0.88514000  1.0
  Pd  Pd31  1  0.00000000  0.99885000  0.95199000  1.0
  C  C32  1  0.00000000  0.24558000  0.79199000  1.0
  O  O33  1  0.00000000  0.24461000  0.74889000  1.0
