# generated using pymatgen
data_Li24Pd8CO
_symmetry_space_group_name_H-M   Pm
_cell_length_a   6.21964000
_cell_length_b   8.79589000
_cell_length_c   26.59690000
_cell_angle_alpha   90.00000000
_cell_angle_beta   90.00000000
_cell_angle_gamma   90.00000000
_symmetry_Int_Tables_number   6
_chemical_formula_structural   Li24Pd8CO
_chemical_formula_sum   'Li24 Pd8 C1 O1'
_cell_volume   1455.04377030
_cell_formula_units_Z   1
loop_
 _symmetry_equiv_pos_site_id
 _symmetry_equiv_pos_as_xyz
  1  'x, y, z'
  2  'x, -y, z'
loop_
 _atom_site_type_symbol
 _atom_site_label
 _atom_site_symmetry_multiplicity
 _atom_site_fract_x
 _atom_site_fract_y
 _atom_site_fract_z
 _atom_site_occupancy
  Li  Li0  2  0.00000000  0.25000000  0.95866000  1.0
  Li  Li1  2  0.00071000  0.24974000  0.11732000  1.0
  Li  Li2  2  0.25000000  0.25000000  0.87598000  1.0
  Li  Li3  2  0.25154000  0.24987000  0.03931000  1.0
  Li  Li4  2  0.75000000  0.25000000  0.87598000  1.0
  Li  Li5  2  0.75043000  0.25037000  0.03934000  1.0
  Li  Li6  1  0.25000000  0.00000000  0.95866000  1.0
  Li  Li7  1  0.25000000  0.50000000  0.95866000  1.0
  Li  Li8  1  0.26795000  0.00000000  0.13045000  1.0
  Li  Li9  1  0.27262000  0.50000000  0.13379000  1.0
  Li  Li10  1  0.50000000  0.00000000  0.87598000  1.0
  Li  Li11  1  0.50000000  0.50000000  0.87598000  1.0
  Li  Li12  1  0.50012000  0.50000000  0.04556000  1.0
  Li  Li13  1  0.50062000  0.00000000  0.04384000  1.0
  Li  Li14  1  0.72668000  0.00000000  0.13146000  1.0
  Li  Li15  1  0.73346000  0.50000000  0.13297000  1.0
  Li  Li16  1  0.75000000  0.00000000  0.95866000  1.0
  Li  Li17  1  0.75000000  0.50000000  0.95866000  1.0
  Pd  Pd18  2  0.50000000  0.25000000  0.95866000  1.0
  Pd  Pd19  2  0.50436000  0.25301000  0.11486000  1.0
  Pd  Pd20  1  0.00000000  0.00000000  0.87598000  1.0
  Pd  Pd21  1  0.00000000  0.50000000  0.87598000  1.0
  Pd  Pd22  1  0.00222000  0.50000000  0.05065000  1.0
  Pd  Pd23  1  0.99885000  0.00000000  0.04801000  1.0
  C  C24  1  0.24558000  0.00000000  0.20801000  1.0
  O  O25  1  0.24461000  0.00000000  0.25111000  1.0
