data_image0
_chemical_formula_structural       Li16In8Pt8C
_chemical_formula_sum              "Li16 In8 Pt8 C1"
_cell_length_a       6.43375
_cell_length_b       9.0987
_cell_length_c       26.824
_cell_angle_alpha    90
_cell_angle_beta     90
_cell_angle_gamma    90

_space_group_name_H-M_alt    "P 1"
_space_group_IT_number       1

loop_
  _space_group_symop_operation_xyz
  'x, y, z'

loop_
  _atom_site_type_symbol
  _atom_site_label
  _atom_site_symmetry_multiplicity
  _atom_site_fract_x
  _atom_site_fract_y
  _atom_site_fract_z
  _atom_site_occupancy
  Li  Li1       1.0  0.00000  0.75000  0.95760  1.0000
  Li  Li2       1.0  0.50000  0.00000  0.87280  1.0000
  Li  Li3       1.0  0.00000  0.25000  0.95760  1.0000
  Li  Li4       1.0  0.50000  0.50000  0.87280  1.0000
  Li  Li5       1.0  0.25000  0.25000  0.87280  1.0000
  Li  Li6       1.0  0.25000  0.75000  0.87280  1.0000
  Li  Li7       1.0  0.75000  0.50000  0.95760  1.0000
  Li  Li8       1.0  0.75000  0.00000  0.95760  1.0000
  Li  Li9       1.0  0.03667  0.24896  0.11931  1.0000
  Li  Li10      1.0  0.51065  0.50000  0.03702  1.0000
  Li  Li11      1.0  0.03666  0.75104  0.11932  1.0000
  Li  Li12      1.0  0.44821  1.00000  0.05064  1.0000
  Li  Li13      1.0  0.24677  0.74342  0.03741  1.0000
  Li  Li14      1.0  0.24678  0.25658  0.03741  1.0000
  Li  Li15      1.0  0.76631  0.00000  0.12487  1.0000
  Li  Li16      1.0  0.72609  0.50000  0.12489  1.0000
  In  In1       1.0  0.25000  0.00000  0.95760  1.0000
  In  In2       1.0  0.25000  0.50000  0.95760  1.0000
  In  In3       1.0  0.75000  0.75000  0.87280  1.0000
  In  In4       1.0  0.75000  0.25000  0.87280  1.0000
  In  In5       1.0  0.28693  0.50000  0.12433  1.0000
  In  In6       1.0  0.15036  1.00000  0.17900  1.0000
  In  In7       1.0  0.74276  0.24561  0.04349  1.0000
  In  In8       1.0  0.74276  0.75439  0.04349  1.0000
  Pt  Pt1       1.0  0.00000  0.00000  0.87280  1.0000
  Pt  Pt2       1.0  0.50000  0.25000  0.95760  1.0000
  Pt  Pt3       1.0  0.50000  0.75000  0.95760  1.0000
  Pt  Pt4       1.0  0.00000  0.50000  0.87280  1.0000
  Pt  Pt5       1.0  0.99290  0.50000  0.04531  1.0000
  Pt  Pt6       1.0  0.45085  0.78931  0.12038  1.0000
  Pt  Pt7       1.0  0.45086  0.21069  0.12038  1.0000
  Pt  Pt8       1.0  0.00319  1.00000  0.04193  1.0000
  C   C1        1.0  0.45088  0.00000  0.13444  1.0000
