# generated using pymatgen
data_Li16In8Pt8C
_symmetry_space_group_name_H-M   'P 1'
_cell_length_a   9.09870000
_cell_length_b   6.43375000
_cell_length_c   26.82400000
_cell_angle_alpha   90.00000000
_cell_angle_beta   90.00000000
_cell_angle_gamma   90.00000000
_symmetry_Int_Tables_number   1
_chemical_formula_structural   Li16In8Pt8C
_chemical_formula_sum   'Li16 In8 Pt8 C1'
_cell_volume   1570.24372842
_cell_formula_units_Z   1
loop_
 _symmetry_equiv_pos_site_id
 _symmetry_equiv_pos_as_xyz
  1  'x, y, z'
loop_
 _atom_site_type_symbol
 _atom_site_label
 _atom_site_symmetry_multiplicity
 _atom_site_fract_x
 _atom_site_fract_y
 _atom_site_fract_z
 _atom_site_occupancy
  Li  Li0  1  0.75000000  1.00000000  0.04240000  1.0
  Li  Li1  1  0.00000000  0.50000000  0.12720000  1.0
  Li  Li2  1  0.25000000  1.00000000  0.04240000  1.0
  Li  Li3  1  0.50000000  0.50000000  0.12720000  1.0
  Li  Li4  1  0.25000000  0.25000000  0.12720000  1.0
  Li  Li5  1  0.75000000  0.25000000  0.12720000  1.0
  Li  Li6  1  0.50000000  0.75000000  0.04240000  1.0
  Li  Li7  1  0.00000000  0.75000000  0.04240000  1.0
  Li  Li8  1  0.24896000  0.03667000  0.88069000  1.0
  Li  Li9  1  0.50000000  0.51065000  0.96298000  1.0
  Li  Li10  1  0.75104000  0.03667000  0.88069000  1.0
  Li  Li11  1  0.00000000  0.44821000  0.94936000  1.0
  Li  Li12  1  0.74342000  0.24677000  0.96259000  1.0
  Li  Li13  1  0.25658000  0.24677000  0.96259000  1.0
  Li  Li14  1  0.00000000  0.76631000  0.87513000  1.0
  Li  Li15  1  0.50000000  0.72609000  0.87511000  1.0
  In  In16  1  0.00000000  0.25000000  0.04240000  1.0
  In  In17  1  0.50000000  0.25000000  0.04240000  1.0
  In  In18  1  0.75000000  0.75000000  0.12720000  1.0
  In  In19  1  0.25000000  0.75000000  0.12720000  1.0
  In  In20  1  0.50000000  0.28693000  0.87567000  1.0
  In  In21  1  0.00000000  0.15036000  0.82100000  1.0
  In  In22  1  0.24561000  0.74276000  0.95651000  1.0
  In  In23  1  0.75439000  0.74276000  0.95651000  1.0
  Pt  Pt24  1  0.00000000  0.00000000  0.12720000  1.0
  Pt  Pt25  1  0.25000000  0.50000000  0.04240000  1.0
  Pt  Pt26  1  0.75000000  0.50000000  0.04240000  1.0
  Pt  Pt27  1  0.50000000  1.00000000  0.12720000  1.0
  Pt  Pt28  1  0.50000000  0.99290000  0.95469000  1.0
  Pt  Pt29  1  0.78931000  0.45085000  0.87962000  1.0
  Pt  Pt30  1  0.21069000  0.45085000  0.87962000  1.0
  Pt  Pt31  1  0.00000000  0.00319000  0.95807000  1.0
  C  C32  1  0.00000000  0.45088000  0.86556000  1.0
