# generated using pymatgen
data_Li16In8Pt8C
_symmetry_space_group_name_H-M   Pm
_cell_length_a   6.43375000
_cell_length_b   9.09870000
_cell_length_c   26.82400000
_cell_angle_alpha   90.00000000
_cell_angle_beta   90.00000000
_cell_angle_gamma   90.00000000
_symmetry_Int_Tables_number   6
_chemical_formula_structural   Li16In8Pt8C
_chemical_formula_sum   'Li16 In8 Pt8 C1'
_cell_volume   1570.24372842
_cell_formula_units_Z   1
loop_
 _symmetry_equiv_pos_site_id
 _symmetry_equiv_pos_as_xyz
  1  'x, y, z'
  2  'x, -y, z'
loop_
 _atom_site_type_symbol
 _atom_site_label
 _atom_site_symmetry_multiplicity
 _atom_site_fract_x
 _atom_site_fract_y
 _atom_site_fract_z
 _atom_site_occupancy
  Li  Li0  2  -0.00000000  0.25000000  0.95760000  1.0
  Li  Li1  2  0.03667000  0.24896000  0.11931000  1.0
  Li  Li2  2  0.24677000  0.25658000  0.03741000  1.0
  Li  Li3  2  0.25000000  0.25000000  0.87280000  1.0
  Li  Li4  1  0.44821000  0.00000000  0.05064000  1.0
  Li  Li5  1  0.50000000  0.00000000  0.87280000  1.0
  Li  Li6  1  0.50000000  0.50000000  0.87280000  1.0
  Li  Li7  1  0.51065000  0.50000000  0.03702000  1.0
  Li  Li8  1  0.72609000  0.50000000  0.12489000  1.0
  Li  Li9  1  0.75000000  0.00000000  0.95760000  1.0
  Li  Li10  1  0.75000000  0.50000000  0.95760000  1.0
  Li  Li11  1  0.76631000  0.00000000  0.12487000  1.0
  In  In12  2  0.74276000  0.24561000  0.04349000  1.0
  In  In13  2  0.75000000  0.25000000  0.87280000  1.0
  In  In14  1  0.15036000  0.00000000  0.17900000  1.0
  In  In15  1  0.25000000  0.00000000  0.95760000  1.0
  In  In16  1  0.25000000  0.50000000  0.95760000  1.0
  In  In17  1  0.28693000  0.50000000  0.12433000  1.0
  Pt  Pt18  2  0.45085000  0.21069000  0.12038000  1.0
  Pt  Pt19  2  0.50000000  0.25000000  0.95760000  1.0
  Pt  Pt20  1  -0.00000000  0.50000000  0.87280000  1.0
  Pt  Pt21  1  0.00000000  0.00000000  0.87280000  1.0
  Pt  Pt22  1  0.00319000  0.00000000  0.04193000  1.0
  Pt  Pt23  1  0.99290000  0.50000000  0.04531000  1.0
  C  C24  1  0.45088000  0.00000000  0.13444000  1.0
