# generated using pymatgen
data_Li8Mg8In8Ag8C
_symmetry_space_group_name_H-M   'P 1'
_cell_length_a   9.46136000
_cell_length_b   6.69019000
_cell_length_c   27.09600000
_cell_angle_alpha   90.00000000
_cell_angle_beta   90.00000000
_cell_angle_gamma   90.00000000
_symmetry_Int_Tables_number   1
_chemical_formula_structural   Li8Mg8In8Ag8C
_chemical_formula_sum   'Li8 Mg8 In8 Ag8 C1'
_cell_volume   1715.13063000
_cell_formula_units_Z   1
loop_
 _symmetry_equiv_pos_site_id
 _symmetry_equiv_pos_as_xyz
  1  'x, y, z'
loop_
 _atom_site_type_symbol
 _atom_site_label
 _atom_site_symmetry_multiplicity
 _atom_site_fract_x
 _atom_site_fract_y
 _atom_site_fract_z
 _atom_site_occupancy
  Li  Li0  1  0.25000000  0.00000000  0.04365000  1.0
  Li  Li1  1  0.75000000  0.00000000  0.04365000  1.0
  Li  Li2  1  0.50000000  0.50000000  0.13094000  1.0
  Li  Li3  1  0.00000000  0.50000000  0.13094000  1.0
  Li  Li4  1  0.73155000  0.02022000  0.86236000  1.0
  Li  Li5  1  0.26845000  0.02022000  0.86236000  1.0
  Li  Li6  1  0.00000000  0.48689000  0.93883000  1.0
  Li  Li7  1  0.50000000  0.49435000  0.95308000  1.0
  Mg  Mg8  1  0.00000000  0.75000000  0.04365000  1.0
  Mg  Mg9  1  0.50000000  0.75000000  0.04365000  1.0
  Mg  Mg10  1  0.25000000  0.25000000  0.13094000  1.0
  Mg  Mg11  1  0.75000000  0.25000000  0.13094000  1.0
  Mg  Mg12  1  0.50000000  0.72485000  0.86445000  1.0
  Mg  Mg13  1  0.00000000  0.79326000  0.86331000  1.0
  Mg  Mg14  1  0.74699000  0.24697000  0.95613000  1.0
  Mg  Mg15  1  0.25301000  0.24697000  0.95613000  1.0
  In  In16  1  0.00000000  0.25000000  0.04365000  1.0
  In  In17  1  0.50000000  0.25000000  0.04365000  1.0
  In  In18  1  0.25000000  0.75000000  0.13094000  1.0
  In  In19  1  0.75000000  0.75000000  0.13094000  1.0
  In  In20  1  0.50000000  0.26249000  0.85189000  1.0
  In  In21  1  0.00000000  0.19337000  0.82973000  1.0
  In  In22  1  0.75117000  0.75324000  0.95188000  1.0
  In  In23  1  0.24883000  0.75324000  0.95188000  1.0
  Ag  Ag24  1  0.00000000  0.00000000  0.13094000  1.0
  Ag  Ag25  1  0.50000000  1.00000000  0.13094000  1.0
  Ag  Ag26  1  0.75000000  0.50000000  0.04365000  1.0
  Ag  Ag27  1  0.25000000  0.50000000  0.04365000  1.0
  Ag  Ag28  1  0.50000000  0.00350000  0.95180000  1.0
  Ag  Ag29  1  0.00000000  0.00543000  0.95601000  1.0
  Ag  Ag30  1  0.23903000  0.47911000  0.86792000  1.0
  Ag  Ag31  1  0.76097000  0.47911000  0.86792000  1.0
  C  C32  1  0.00000000  0.48689000  0.85753000  1.0
