# generated using pymatgen
data_Y8Pd16Pb8C
_symmetry_space_group_name_H-M   'P 1'
_cell_length_a   6.95998000
_cell_length_b   9.84289000
_cell_length_c   27.38220000
_cell_angle_alpha   90.00000000
_cell_angle_beta   90.00000000
_cell_angle_gamma   90.00000000
_symmetry_Int_Tables_number   1
_chemical_formula_structural   Y8Pd16Pb8C
_chemical_formula_sum   'Y8 Pd16 Pb8 C1'
_cell_volume   1875.85368820
_cell_formula_units_Z   1
loop_
 _symmetry_equiv_pos_site_id
 _symmetry_equiv_pos_as_xyz
  1  'x, y, z'
loop_
 _atom_site_type_symbol
 _atom_site_label
 _atom_site_symmetry_multiplicity
 _atom_site_fract_x
 _atom_site_fract_y
 _atom_site_fract_z
 _atom_site_occupancy
  Y  Y0  1  0.00000000  0.00000000  0.86520000  1.0
  Y  Y1  1  0.50000000  0.25000000  0.95507000  1.0
  Y  Y2  1  0.50000000  0.75000000  0.95507000  1.0
  Y  Y3  1  0.00000000  0.50000000  0.86520000  1.0
  Y  Y4  1  0.00000000  0.50000000  0.04581000  1.0
  Y  Y5  1  0.50000000  0.76098000  0.13402000  1.0
  Y  Y6  1  0.50000000  0.23902000  0.13402000  1.0
  Y  Y7  1  0.00000000  0.00000000  0.04859000  1.0
  Pd  Pd8  1  0.25000000  0.00000000  0.95507000  1.0
  Pd  Pd9  1  0.75000000  0.50000000  0.95507000  1.0
  Pd  Pd10  1  0.75000000  0.00000000  0.95507000  1.0
  Pd  Pd11  1  0.25000000  0.50000000  0.95507000  1.0
  Pd  Pd12  1  0.75000000  0.75000000  0.86520000  1.0
  Pd  Pd13  1  0.25000000  0.25000000  0.86520000  1.0
  Pd  Pd14  1  0.25000000  0.75000000  0.86520000  1.0
  Pd  Pd15  1  0.75000000  0.25000000  0.86520000  1.0
  Pd  Pd16  1  0.25283000  0.50000000  0.12828000  1.0
  Pd  Pd17  1  0.79766000  0.00000000  0.13946000  1.0
  Pd  Pd18  1  0.74717000  0.50000000  0.12828000  1.0
  Pd  Pd19  1  0.20234000  0.00000000  0.13946000  1.0
  Pd  Pd20  1  0.75476000  0.25235000  0.04753000  1.0
  Pd  Pd21  1  0.24524000  0.74765000  0.04753000  1.0
  Pd  Pd22  1  0.24524000  0.25235000  0.04753000  1.0
  Pd  Pd23  1  0.75476000  0.74765000  0.04753000  1.0
  Pb  Pb24  1  0.00000000  0.75000000  0.95507000  1.0
  Pb  Pb25  1  0.50000000  0.00000000  0.86520000  1.0
  Pb  Pb26  1  0.00000000  0.25000000  0.95507000  1.0
  Pb  Pb27  1  0.50000000  0.50000000  0.86520000  1.0
  Pb  Pb28  1  0.00000000  0.25926000  0.14309000  1.0
  Pb  Pb29  1  0.50000000  0.50000000  0.04409000  1.0
  Pb  Pb30  1  0.00000000  0.74074000  0.14309000  1.0
  Pb  Pb31  1  0.50000000  0.00000000  0.04469000  1.0
  C  C32  1  0.50000000  0.00000000  0.13760000  1.0
