data_image0
_chemical_formula_structural       Ga8Fe16Ni8C
_chemical_formula_sum              "Ga8 Fe16 Ni8 C1"
_cell_length_a       5.81401
_cell_length_b       8.22225
_cell_length_c       26.1667
_cell_angle_alpha    90
_cell_angle_beta     90
_cell_angle_gamma    90

_space_group_name_H-M_alt    "P 1"
_space_group_IT_number       1

loop_
  _space_group_symop_operation_xyz
  'x, y, z'

loop_
  _atom_site_type_symbol
  _atom_site_label
  _atom_site_symmetry_multiplicity
  _atom_site_fract_x
  _atom_site_fract_y
  _atom_site_fract_z
  _atom_site_occupancy
  Ga  Ga1       1.0  0.00000  0.00000  0.88217  1.0000
  Ga  Ga2       1.0  0.50000  0.25000  0.96072  1.0000
  Ga  Ga3       1.0  0.50000  0.75000  0.96072  1.0000
  Ga  Ga4       1.0  0.00000  0.50000  0.88217  1.0000
  Ga  Ga5       1.0  0.00000  0.50004  0.04146  1.0000
  Ga  Ga6       1.0  0.50000  0.75467  0.14211  1.0000
  Ga  Ga7       1.0  0.50000  0.24536  0.14209  1.0000
  Ga  Ga8       1.0  1.00000  0.99996  0.03537  1.0000
  Fe  Fe1       1.0  0.25000  0.00000  0.96072  1.0000
  Fe  Fe2       1.0  0.75000  0.50000  0.96072  1.0000
  Fe  Fe3       1.0  0.75000  0.00000  0.96072  1.0000
  Fe  Fe4       1.0  0.25000  0.50000  0.96072  1.0000
  Fe  Fe5       1.0  0.75000  0.75000  0.88217  1.0000
  Fe  Fe6       1.0  0.25000  0.25000  0.88217  1.0000
  Fe  Fe7       1.0  0.25000  0.75000  0.88217  1.0000
  Fe  Fe8       1.0  0.75000  0.25000  0.88217  1.0000
  Fe  Fe9       1.0  0.28612  0.50002  0.11603  1.0000
  Fe  Fe10      1.0  0.77278  0.00002  0.11498  1.0000
  Fe  Fe11      1.0  0.71390  0.50002  0.11603  1.0000
  Fe  Fe12      1.0  0.22723  0.00002  0.11497  1.0000
  Fe  Fe13      1.0  0.72240  0.25073  0.04904  1.0000
  Fe  Fe14      1.0  0.27769  0.74929  0.04904  1.0000
  Fe  Fe15      1.0  0.27759  0.25072  0.04904  1.0000
  Fe  Fe16      1.0  0.72231  0.74928  0.04904  1.0000
  Ni  Ni1       1.0  0.00000  0.75000  0.96072  1.0000
  Ni  Ni2       1.0  0.50000  0.00000  0.88217  1.0000
  Ni  Ni3       1.0  0.00000  0.25000  0.96072  1.0000
  Ni  Ni4       1.0  0.50000  0.50000  0.88217  1.0000
  Ni  Ni5       1.0  0.00000  0.26231  0.11587  1.0000
  Ni  Ni6       1.0  0.50000  0.49997  0.02994  1.0000
  Ni  Ni7       1.0  0.00000  0.73773  0.11586  1.0000
  Ni  Ni8       1.0  0.50001  0.00003  0.03226  1.0000
  C   C1        1.0  0.50000  0.00002  0.15296  1.0000
