# generated using pymatgen
data_Ga8Fe16Ni8C
_symmetry_space_group_name_H-M   'P 1'
_cell_length_a   5.81401000
_cell_length_b   8.22225000
_cell_length_c   26.16670000
_cell_angle_alpha   90.00000000
_cell_angle_beta   90.00000000
_cell_angle_gamma   90.00000000
_symmetry_Int_Tables_number   1
_chemical_formula_structural   Ga8Fe16Ni8C
_chemical_formula_sum   'Ga8 Fe16 Ni8 C1'
_cell_volume   1250.87930421
_cell_formula_units_Z   1
loop_
 _symmetry_equiv_pos_site_id
 _symmetry_equiv_pos_as_xyz
  1  'x, y, z'
loop_
 _atom_site_type_symbol
 _atom_site_label
 _atom_site_symmetry_multiplicity
 _atom_site_fract_x
 _atom_site_fract_y
 _atom_site_fract_z
 _atom_site_occupancy
  Ga  Ga0  1  0.00000000  0.00000000  0.88217000  1.0
  Ga  Ga1  1  0.50000000  0.24998000  0.96072000  1.0
  Ga  Ga2  1  0.50000000  0.75002000  0.96072000  1.0
  Ga  Ga3  1  0.00000000  0.50000000  0.88217000  1.0
  Ga  Ga4  1  0.00000000  0.50000000  0.04146000  1.0
  Ga  Ga5  1  0.50000000  0.75465000  0.14211000  1.0
  Ga  Ga6  1  0.50000000  0.24535000  0.14211000  1.0
  Ga  Ga7  1  0.00000000  0.00000000  0.03537000  1.0
  Fe  Fe8  1  0.25000000  0.00000000  0.96072000  1.0
  Fe  Fe9  1  0.75000000  0.50000000  0.96072000  1.0
  Fe  Fe10  1  0.75000000  0.00000000  0.96072000  1.0
  Fe  Fe11  1  0.25000000  0.50000000  0.96072000  1.0
  Fe  Fe12  1  0.75000000  0.74998000  0.88217000  1.0
  Fe  Fe13  1  0.25000000  0.25002000  0.88217000  1.0
  Fe  Fe14  1  0.25000000  0.74998000  0.88217000  1.0
  Fe  Fe15  1  0.75000000  0.25002000  0.88217000  1.0
  Fe  Fe16  1  0.28612000  0.50000000  0.11603000  1.0
  Fe  Fe17  1  0.77278000  0.00000000  0.11498000  1.0
  Fe  Fe18  1  0.71388000  0.50000000  0.11603000  1.0
  Fe  Fe19  1  0.22722000  0.00000000  0.11498000  1.0
  Fe  Fe20  1  0.72240000  0.25071000  0.04904000  1.0
  Fe  Fe21  1  0.27760000  0.74929000  0.04904000  1.0
  Fe  Fe22  1  0.27760000  0.25071000  0.04904000  1.0
  Fe  Fe23  1  0.72240000  0.74929000  0.04904000  1.0
  Ni  Ni24  1  0.00000000  0.74998000  0.96072000  1.0
  Ni  Ni25  1  0.50000000  0.00000000  0.88217000  1.0
  Ni  Ni26  1  0.00000000  0.25002000  0.96072000  1.0
  Ni  Ni27  1  0.50000000  0.50000000  0.88217000  1.0
  Ni  Ni28  1  0.00000000  0.26229000  0.11587000  1.0
  Ni  Ni29  1  0.50000000  0.50000000  0.02994000  1.0
  Ni  Ni30  1  0.00000000  0.73771000  0.11587000  1.0
  Ni  Ni31  1  0.50000000  0.00000000  0.03226000  1.0
  C  C32  1  0.50000000  0.00000000  0.15296000  1.0
