# generated using pymatgen
data_Ti4Ir12C
_symmetry_space_group_name_H-M   'P 1'
_cell_length_a   7.78093000
_cell_length_b   5.50195000
_cell_length_c   24.12650000
_cell_angle_alpha   90.00000000
_cell_angle_beta   90.00000000
_cell_angle_gamma   90.00000000
_symmetry_Int_Tables_number   1
_chemical_formula_structural   Ti4Ir12C
_chemical_formula_sum   'Ti4 Ir12 C1'
_cell_volume   1032.86240893
_cell_formula_units_Z   1
loop_
 _symmetry_equiv_pos_site_id
 _symmetry_equiv_pos_as_xyz
  1  'x, y, z'
loop_
 _atom_site_type_symbol
 _atom_site_label
 _atom_site_symmetry_multiplicity
 _atom_site_fract_x
 _atom_site_fract_y
 _atom_site_fract_z
 _atom_site_occupancy
  Ti  Ti0  1  0.75851000  0.00146000  0.07609000  1.0
  Ti  Ti1  1  0.75000000  0.50000000  0.97149000  1.0
  Ti  Ti2  1  0.24149000  0.00146000  0.07609000  1.0
  Ti  Ti3  1  0.25000000  0.50000000  0.97149000  1.0
  Ir  Ir4  1  0.75178000  0.50146000  0.08195000  1.0
  Ir  Ir5  1  0.50000000  0.24673000  0.02787000  1.0
  Ir  Ir6  1  0.50000000  0.75509000  0.02795000  1.0
  Ir  Ir7  1  0.75000000  0.00000000  0.97149000  1.0
  Ir  Ir8  1  0.50000000  0.75000000  0.91448000  1.0
  Ir  Ir9  1  0.50000000  0.25000000  0.91448000  1.0
  Ir  Ir10  1  0.24822000  0.50146000  0.08195000  1.0
  Ir  Ir11  1  0.00000000  0.24977000  0.03038000  1.0
  Ir  Ir12  1  0.00000000  0.75260000  0.03039000  1.0
  Ir  Ir13  1  0.25000000  0.00000000  0.97149000  1.0
  Ir  Ir14  1  0.00000000  0.75000000  0.91448000  1.0
  Ir  Ir15  1  0.00000000  0.25000000  0.91448000  1.0
  C  C16  1  0.50000000  0.50069000  0.09497000  1.0
