# generated using pymatgen
data_LiMgGaPd
_symmetry_space_group_name_H-M   Pm
_cell_length_a   6.27706000
_cell_length_b   4.43855000
_cell_length_c   26.65780000
_cell_angle_alpha   90.00000000
_cell_angle_beta   90.00000000
_cell_angle_gamma   90.00000000
_symmetry_Int_Tables_number   6
_chemical_formula_structural   LiMgGaPd
_chemical_formula_sum   'Li4 Mg4 Ga4 Pd4'
_cell_volume   742.71415642
_cell_formula_units_Z   4
loop_
 _symmetry_equiv_pos_site_id
 _symmetry_equiv_pos_as_xyz
  1  'x, y, z'
  2  'x, -y, z'
loop_
 _atom_site_type_symbol
 _atom_site_label
 _atom_site_symmetry_multiplicity
 _atom_site_fract_x
 _atom_site_fract_y
 _atom_site_fract_z
 _atom_site_occupancy
  Li  Li0  1  0.24594500  0.50000000  0.95801000  1.0
  Li  Li1  1  0.25000000  0.50000000  0.12488000  1.0
  Li  Li2  1  0.72503000  0.00000000  0.86720500  1.0
  Li  Li3  1  0.75000000  0.00000000  0.04163000  1.0
  Mg  Mg4  1  -0.00000000  0.50000000  0.04163000  1.0
  Mg  Mg5  1  0.01533500  0.50000000  0.86870000  1.0
  Mg  Mg6  1  0.50000000  0.00000000  0.12488000  1.0
  Mg  Mg7  1  0.50827000  0.00000000  0.95985000  1.0
  Ga  Ga8  1  -0.00000000  0.00000000  0.12488000  1.0
  Ga  Ga9  1  0.48634500  0.50000000  0.87336000  1.0
  Ga  Ga10  1  0.50000000  0.50000000  0.04163000  1.0
  Ga  Ga11  1  0.99671000  0.00000000  0.95634000  1.0
  Pd  Pd12  1  0.25000000  0.00000000  0.04163000  1.0
  Pd  Pd13  1  0.26306000  0.00000000  0.88046000  1.0
  Pd  Pd14  1  0.75000000  0.50000000  0.12488000  1.0
  Pd  Pd15  1  0.75729000  0.50000000  0.95618000  1.0
