# generated using pymatgen
data_Li4Al4Ag4Ge4CO
_symmetry_space_group_name_H-M   'P 1'
_cell_length_a   8.55604000
_cell_length_b   5.56638000
_cell_length_c   24.17150000
_cell_angle_alpha   90.00000000
_cell_angle_beta   90.00000000
_cell_angle_gamma   90.00000000
_symmetry_Int_Tables_number   1
_chemical_formula_structural   Li4Al4Ag4Ge4CO
_chemical_formula_sum   'Li4 Al4 Ag4 Ge4 C1 O1'
_cell_volume   1151.19596659
_cell_formula_units_Z   1
loop_
 _symmetry_equiv_pos_site_id
 _symmetry_equiv_pos_as_xyz
  1  'x, y, z'
loop_
 _atom_site_type_symbol
 _atom_site_label
 _atom_site_symmetry_multiplicity
 _atom_site_fract_x
 _atom_site_fract_y
 _atom_site_fract_z
 _atom_site_occupancy
  Li  Li0  1  0.75000000  0.50000000  0.08629000  1.0
  Li  Li1  1  0.75124000  0.97312000  0.97183000  1.0
  Li  Li2  1  0.25000000  0.50000000  0.08629000  1.0
  Li  Li3  1  0.24876000  0.97312000  0.97183000  1.0
  Al  Al4  1  0.00000000  0.24004000  0.02876000  1.0
  Al  Al5  1  0.00000000  0.71717000  0.91691000  1.0
  Al  Al6  1  0.50000000  0.24004000  0.02876000  1.0
  Al  Al7  1  0.50000000  0.71649000  0.92007000  1.0
  Ag  Ag8  1  0.75000000  0.00000000  0.08629000  1.0
  Ag  Ag9  1  0.75195000  0.47553000  0.95725000  1.0
  Ag  Ag10  1  0.25000000  0.00000000  0.08629000  1.0
  Ag  Ag11  1  0.24805000  0.47553000  0.95725000  1.0
  Ge  Ge12  1  0.00000000  0.74004000  0.02876000  1.0
  Ge  Ge13  1  0.00000000  0.20992000  0.92112000  1.0
  Ge  Ge14  1  0.50000000  0.74004000  0.02876000  1.0
  Ge  Ge15  1  0.50000000  0.21250000  0.92028000  1.0
  C  C16  1  0.00000000  0.71571000  0.83323000  1.0
  O  O17  1  0.00000000  0.71381000  0.78567000  1.0
