# generated using pymatgen
data_Li4Al4Ag4Ge4CO
_symmetry_space_group_name_H-M   Pm
_cell_length_a   5.56638000
_cell_length_b   8.55604000
_cell_length_c   24.17150000
_cell_angle_alpha   90.00000000
_cell_angle_beta   90.00000000
_cell_angle_gamma   90.00000000
_symmetry_Int_Tables_number   6
_chemical_formula_structural   Li4Al4Ag4Ge4CO
_chemical_formula_sum   'Li4 Al4 Ag4 Ge4 C1 O1'
_cell_volume   1151.19596659
_cell_formula_units_Z   1
loop_
 _symmetry_equiv_pos_site_id
 _symmetry_equiv_pos_as_xyz
  1  'x, y, z'
  2  'x, -y, z'
loop_
 _atom_site_type_symbol
 _atom_site_label
 _atom_site_symmetry_multiplicity
 _atom_site_fract_x
 _atom_site_fract_y
 _atom_site_fract_z
 _atom_site_occupancy
  Li  Li0  2  0.50000000  0.25000000  0.91371000  1.0
  Li  Li1  2  0.97312000  0.24876000  0.02817000  1.0
  Al  Al2  1  0.24004000  0.00000000  0.97124000  1.0
  Al  Al3  1  0.24004000  0.50000000  0.97124000  1.0
  Al  Al4  1  0.71649000  0.50000000  0.07993000  1.0
  Al  Al5  1  0.71717000  0.00000000  0.08309000  1.0
  Ag  Ag6  2  0.00000000  0.25000000  0.91371000  1.0
  Ag  Ag7  2  0.47553000  0.24805000  0.04275000  1.0
  Ge  Ge8  1  0.20992000  0.00000000  0.07888000  1.0
  Ge  Ge9  1  0.21250000  0.50000000  0.07972000  1.0
  Ge  Ge10  1  0.74004000  0.00000000  0.97124000  1.0
  Ge  Ge11  1  0.74004000  0.50000000  0.97124000  1.0
  C  C12  1  0.71571000  0.00000000  0.16677000  1.0
  O  O13  1  0.71381000  0.00000000  0.21433000  1.0
