# generated using pymatgen
data_Li8V8Ge8Pd8CO
_symmetry_space_group_name_H-M   Pm
_cell_length_a   9.40562000
_cell_length_b   5.68832000
_cell_length_c   26.48090000
_cell_angle_alpha   90.00000000
_cell_angle_beta   90.00000000
_cell_angle_gamma   90.00000000
_symmetry_Int_Tables_number   6
_chemical_formula_structural   Li8V8Ge8Pd8CO
_chemical_formula_sum   'Li8 V8 Ge8 Pd8 C1 O1'
_cell_volume   1416.78578193
_cell_formula_units_Z   1
loop_
 _symmetry_equiv_pos_site_id
 _symmetry_equiv_pos_as_xyz
  1  'x, y, z'
  2  'x, -y, z'
loop_
 _atom_site_type_symbol
 _atom_site_label
 _atom_site_symmetry_multiplicity
 _atom_site_fract_x
 _atom_site_fract_y
 _atom_site_fract_z
 _atom_site_occupancy
  Li  Li0  1  0.24997000  0.00000000  0.14257000  1.0
  Li  Li1  1  0.25000000  0.00000000  0.95921000  1.0
  Li  Li2  1  0.25000000  0.50000000  0.95921000  1.0
  Li  Li3  1  0.25006000  0.50000000  0.14212000  1.0
  Li  Li4  1  0.75000000  0.00000000  0.95921000  1.0
  Li  Li5  1  0.75000000  0.50000000  0.95921000  1.0
  Li  Li6  1  0.75001000  0.50000000  0.14348000  1.0
  Li  Li7  1  0.75012000  0.00000000  0.14361000  1.0
  V  V8  1  -0.00000000  0.00000000  0.87763000  1.0
  V  V9  1  -0.00000000  0.50000000  0.87763000  1.0
  V  V10  1  0.00114000  0.50000000  0.03917000  1.0
  V  V11  1  0.00286000  0.00000000  0.03922000  1.0
  V  V12  1  0.49710000  0.00000000  0.03922000  1.0
  V  V13  1  0.49883000  0.50000000  0.03919000  1.0
  V  V14  1  0.50000000  0.00000000  0.87763000  1.0
  V  V15  1  0.50000000  0.50000000  0.87763000  1.0
  Ge  Ge16  2  0.00000000  0.25001000  0.95921000  1.0
  Ge  Ge17  2  0.50000000  0.25001000  0.95921000  1.0
  Ge  Ge18  2  0.50660000  0.25069000  0.12096000  1.0
  Ge  Ge19  2  0.99348000  0.25078000  0.12093000  1.0
  Pd  Pd20  2  0.24999000  0.24988000  0.05936000  1.0
  Pd  Pd21  2  0.25000000  0.25001000  0.87763000  1.0
  Pd  Pd22  2  0.74999000  0.25006000  0.05871000  1.0
  Pd  Pd23  2  0.75000000  0.25001000  0.87763000  1.0
  C  C24  1  0.24999000  0.00000000  0.22194000  1.0
  O  O25  1  0.24999000  0.00000000  0.26498000  1.0
