data_image0
_chemical_formula_structural       Zr8Al8Co16
_chemical_formula_sum              "Zr8 Al8 Co16"
_cell_length_a       6.08368
_cell_length_b       8.60362
_cell_length_c       26.4527
_cell_angle_alpha    90
_cell_angle_beta     90
_cell_angle_gamma    90

_space_group_name_H-M_alt    "P 1"
_space_group_IT_number       1

loop_
  _space_group_symop_operation_xyz
  'x, y, z'

loop_
  _atom_site_type_symbol
  _atom_site_label
  _atom_site_symmetry_multiplicity
  _atom_site_fract_x
  _atom_site_fract_y
  _atom_site_fract_z
  _atom_site_occupancy
  Zr  Zr1       1.0  0.00000  0.00000  0.87803  1.0000
  Zr  Zr2       1.0  0.50000  0.25000  0.95934  1.0000
  Zr  Zr3       1.0  0.50000  0.75000  0.95934  1.0000
  Zr  Zr4       1.0  0.00000  0.50000  0.87803  1.0000
  Zr  Zr5       1.0  1.00000  0.50000  0.04114  1.0000
  Zr  Zr6       1.0  0.50000  0.75000  0.12233  1.0000
  Zr  Zr7       1.0  0.50000  0.25000  0.12233  1.0000
  Zr  Zr8       1.0  1.00000  1.00000  0.04114  1.0000
  Al  Al1       1.0  0.00000  0.75000  0.95934  1.0000
  Al  Al2       1.0  0.50000  0.00000  0.87803  1.0000
  Al  Al3       1.0  0.00000  0.25000  0.95934  1.0000
  Al  Al4       1.0  0.50000  0.50000  0.87803  1.0000
  Al  Al5       1.0  1.00000  0.25000  0.12207  1.0000
  Al  Al6       1.0  0.50000  0.50000  0.04099  1.0000
  Al  Al7       1.0  1.00000  0.75000  0.12207  1.0000
  Al  Al8       1.0  0.50000  0.00000  0.04099  1.0000
  Co  Co1       1.0  0.25000  0.00000  0.95934  1.0000
  Co  Co2       1.0  0.75000  0.50000  0.95934  1.0000
  Co  Co3       1.0  0.75000  0.00000  0.95934  1.0000
  Co  Co4       1.0  0.25000  0.50000  0.95934  1.0000
  Co  Co5       1.0  0.75000  0.75000  0.87803  1.0000
  Co  Co6       1.0  0.25000  0.25000  0.87803  1.0000
  Co  Co7       1.0  0.25000  0.75000  0.87803  1.0000
  Co  Co8       1.0  0.75000  0.25000  0.87803  1.0000
  Co  Co9       1.0  0.24817  0.50000  0.12128  1.0000
  Co  Co10      1.0  0.75183  0.00000  0.12128  1.0000
  Co  Co11      1.0  0.75183  0.50000  0.12128  1.0000
  Co  Co12      1.0  0.24817  0.00000  0.12128  1.0000
  Co  Co13      1.0  0.74928  0.25000  0.04074  1.0000
  Co  Co14      1.0  0.25072  0.75000  0.04074  1.0000
  Co  Co15      1.0  0.25072  0.25000  0.04074  1.0000
  Co  Co16      1.0  0.74928  0.75000  0.04074  1.0000
