# generated using pymatgen
data_ZrAlCo2
_symmetry_space_group_name_H-M   'P 1'
_cell_length_a   4.30181000
_cell_length_b   6.08368000
_cell_length_c   26.45270000
_cell_angle_alpha   90.00000000
_cell_angle_beta   90.00000000
_cell_angle_gamma   90.00000000
_symmetry_Int_Tables_number   1
_chemical_formula_structural   ZrAlCo2
_chemical_formula_sum   'Zr4 Al4 Co8'
_cell_volume   692.28925919
_cell_formula_units_Z   4
loop_
 _symmetry_equiv_pos_site_id
 _symmetry_equiv_pos_as_xyz
  1  'x, y, z'
loop_
 _atom_site_type_symbol
 _atom_site_label
 _atom_site_symmetry_multiplicity
 _atom_site_fract_x
 _atom_site_fract_y
 _atom_site_fract_z
 _atom_site_occupancy
  Zr  Zr0  1  0.00000000  0.00000000  0.12197000  1.0
  Zr  Zr1  1  0.50000000  0.50000000  0.04066000  1.0
  Zr  Zr2  1  0.00000000  0.00000000  0.95886000  1.0
  Zr  Zr3  1  0.50000000  0.50000000  0.87767000  1.0
  Al  Al4  1  0.50000000  0.00000000  0.04066000  1.0
  Al  Al5  1  0.00000000  0.50000000  0.12197000  1.0
  Al  Al6  1  0.50000000  0.00000000  0.87793000  1.0
  Al  Al7  1  0.00000000  0.50000000  0.95901000  1.0
  Co  Co8  1  0.00000000  0.75000000  0.04066000  1.0
  Co  Co9  1  0.00000000  0.25000000  0.04066000  1.0
  Co  Co10  1  0.50000000  0.25000000  0.12197000  1.0
  Co  Co11  1  0.50000000  0.75000000  0.12197000  1.0
  Co  Co12  1  0.00000000  0.75183000  0.87872000  1.0
  Co  Co13  1  0.00000000  0.24817000  0.87872000  1.0
  Co  Co14  1  0.50000000  0.25072000  0.95926000  1.0
  Co  Co15  1  0.50000000  0.74928000  0.95926000  1.0
