# generated using pymatgen
data_Li8Y8Sn8Ge8CO
_symmetry_space_group_name_H-M   'P 1'
_cell_length_a   9.43388000
_cell_length_b   8.52742000
_cell_length_c   26.45610000
_cell_angle_alpha   90.00000000
_cell_angle_beta   90.00000000
_cell_angle_gamma   90.00000000
_symmetry_Int_Tables_number   1
_chemical_formula_structural   Li8Y8Sn8Ge8CO
_chemical_formula_sum   'Li8 Y8 Sn8 Ge8 C1 O1'
_cell_volume   2128.30480198
_cell_formula_units_Z   1
loop_
 _symmetry_equiv_pos_site_id
 _symmetry_equiv_pos_as_xyz
  1  'x, y, z'
loop_
 _atom_site_type_symbol
 _atom_site_label
 _atom_site_symmetry_multiplicity
 _atom_site_fract_x
 _atom_site_fract_y
 _atom_site_fract_z
 _atom_site_occupancy
  Li  Li0  1  0.00000000  0.25000000  0.12202000  1.0
  Li  Li1  1  0.00000000  0.25025000  0.95849000  1.0
  Li  Li2  1  0.50000000  0.25000000  0.12202000  1.0
  Li  Li3  1  0.50000000  0.25011000  0.95818000  1.0
  Li  Li4  1  0.00000000  0.75000000  0.12202000  1.0
  Li  Li5  1  0.00000000  0.74975000  0.95849000  1.0
  Li  Li6  1  0.50000000  0.75000000  0.12202000  1.0
  Li  Li7  1  0.50000000  0.74989000  0.95817000  1.0
  Y  Y8  1  0.74998000  0.25000000  0.04067000  1.0
  Y  Y9  1  0.75014000  0.24995000  0.87812000  1.0
  Y  Y10  1  0.25002000  0.25000000  0.04067000  1.0
  Y  Y11  1  0.24986000  0.24995000  0.87812000  1.0
  Y  Y12  1  0.74998000  0.75000000  0.04067000  1.0
  Y  Y13  1  0.75014000  0.75006000  0.87812000  1.0
  Y  Y14  1  0.25002000  0.75000000  0.04067000  1.0
  Y  Y15  1  0.24986000  0.75006000  0.87812000  1.0
  Sn  Sn16  1  0.00000000  0.00000000  0.04067000  1.0
  Sn  Sn17  1  0.00000000  0.00000000  0.87585000  1.0
  Sn  Sn18  1  0.50000000  0.00000000  0.04067000  1.0
  Sn  Sn19  1  0.50000000  0.00000000  0.87338000  1.0
  Sn  Sn20  1  0.00000000  0.50000000  0.04067000  1.0
  Sn  Sn21  1  0.00000000  0.50000000  0.87347000  1.0
  Sn  Sn22  1  0.50000000  0.50000000  0.04067000  1.0
  Sn  Sn23  1  0.50000000  0.50000000  0.87402000  1.0
  Ge  Ge24  1  0.74998000  0.00000000  0.12202000  1.0
  Ge  Ge25  1  0.75346000  0.00001000  0.95565000  1.0
  Ge  Ge26  1  0.25002000  0.00000000  0.12202000  1.0
  Ge  Ge27  1  0.24654000  0.00001000  0.95565000  1.0
  Ge  Ge28  1  0.74998000  0.50000000  0.12202000  1.0
  Ge  Ge29  1  0.74661000  0.50000000  0.95608000  1.0
  Ge  Ge30  1  0.25002000  0.50000000  0.12202000  1.0
  Ge  Ge31  1  0.25339000  0.50000000  0.95608000  1.0
  C  C32  1  0.00000000  0.99990000  0.70536000  1.0
  O  O33  1  0.00000000  0.00002000  0.66246000  1.0
