# generated using pymatgen
data_Li8Y8Sn8Ge8CO
_symmetry_space_group_name_H-M   Pm
_cell_length_a   8.52742000
_cell_length_b   9.43388000
_cell_length_c   26.45610000
_cell_angle_alpha   90.00000000
_cell_angle_beta   90.00000000
_cell_angle_gamma   90.00000000
_symmetry_Int_Tables_number   6
_chemical_formula_structural   Li8Y8Sn8Ge8CO
_chemical_formula_sum   'Li8 Y8 Sn8 Ge8 C1 O1'
_cell_volume   2128.30480198
_cell_formula_units_Z   1
loop_
 _symmetry_equiv_pos_site_id
 _symmetry_equiv_pos_as_xyz
  1  'x, y, z'
  2  'x, -y, z'
loop_
 _atom_site_type_symbol
 _atom_site_label
 _atom_site_symmetry_multiplicity
 _atom_site_fract_x
 _atom_site_fract_y
 _atom_site_fract_z
 _atom_site_occupancy
  Li  Li0  1  0.25000000  0.00000000  0.87798000  1.0
  Li  Li1  1  0.25000000  0.50000000  0.87798000  1.0
  Li  Li2  1  0.25011000  0.50000000  0.04182000  1.0
  Li  Li3  1  0.25025000  0.00000000  0.04151000  1.0
  Li  Li4  1  0.74975000  0.00000000  0.04151000  1.0
  Li  Li5  1  0.74989000  0.50000000  0.04183000  1.0
  Li  Li6  1  0.75000000  0.00000000  0.87798000  1.0
  Li  Li7  1  0.75000000  0.50000000  0.87798000  1.0
  Y  Y8  2  0.24995000  0.24986000  0.12188000  1.0
  Y  Y9  2  0.25000000  0.25002000  0.95933000  1.0
  Y  Y10  2  0.75000000  0.25002000  0.95933000  1.0
  Y  Y11  2  0.75006000  0.24986000  0.12188000  1.0
  Sn  Sn12  1  0.00000000  0.00000000  0.12415000  1.0
  Sn  Sn13  1  0.00000000  0.00000000  0.95933000  1.0
  Sn  Sn14  1  0.00000000  0.50000000  0.12662000  1.0
  Sn  Sn15  1  0.00000000  0.50000000  0.95933000  1.0
  Sn  Sn16  1  0.50000000  0.00000000  0.12653000  1.0
  Sn  Sn17  1  0.50000000  0.00000000  0.95933000  1.0
  Sn  Sn18  1  0.50000000  0.50000000  0.12598000  1.0
  Sn  Sn19  1  0.50000000  0.50000000  0.95933000  1.0
  Ge  Ge20  2  0.00000000  0.25002000  0.87798000  1.0
  Ge  Ge21  2  0.00001000  0.24654000  0.04435000  1.0
  Ge  Ge22  2  0.50000000  0.25002000  0.87798000  1.0
  Ge  Ge23  2  0.50000000  0.25339000  0.04392000  1.0
  C  C24  1  0.99990000  0.00000000  0.29464000  1.0
  O  O25  1  0.00002000  0.00000000  0.33754000  1.0
