# generated using pymatgen
data_Zn16Ni16C
_symmetry_space_group_name_H-M   'P 1'
_cell_length_a   5.79956000
_cell_length_b   8.20182000
_cell_length_c   26.15140000
_cell_angle_alpha   90.00000000
_cell_angle_beta   90.00000000
_cell_angle_gamma   90.00000000
_symmetry_Int_Tables_number   1
_chemical_formula_structural   Zn16Ni16C
_chemical_formula_sum   'Zn16 Ni16 C1'
_cell_volume   1243.94226299
_cell_formula_units_Z   1
loop_
 _symmetry_equiv_pos_site_id
 _symmetry_equiv_pos_as_xyz
  1  'x, y, z'
loop_
 _atom_site_type_symbol
 _atom_site_label
 _atom_site_symmetry_multiplicity
 _atom_site_fract_x
 _atom_site_fract_y
 _atom_site_fract_z
 _atom_site_occupancy
  Zn  Zn0  1  0.00000000  0.00000000  0.88239000  1.0
  Zn  Zn1  1  0.00000000  0.74999000  0.96080000  1.0
  Zn  Zn2  1  0.00000000  0.00000000  0.03863000  1.0
  Zn  Zn3  1  0.00000000  0.74645000  0.12661000  1.0
  Zn  Zn4  1  0.00000000  0.50000000  0.88239000  1.0
  Zn  Zn5  1  0.00000000  0.25001000  0.96080000  1.0
  Zn  Zn6  1  0.00000000  0.50000000  0.03662000  1.0
  Zn  Zn7  1  0.00000000  0.25355000  0.12661000  1.0
  Zn  Zn8  1  0.50000000  0.00000000  0.88239000  1.0
  Zn  Zn9  1  0.50000000  0.74999000  0.96080000  1.0
  Zn  Zn10  1  0.50000000  0.00000000  0.03587000  1.0
  Zn  Zn11  1  0.50000000  0.73677000  0.12420000  1.0
  Zn  Zn12  1  0.50000000  0.50000000  0.88239000  1.0
  Zn  Zn13  1  0.50000000  0.25001000  0.96080000  1.0
  Zn  Zn14  1  0.50000000  0.50000000  0.03822000  1.0
  Zn  Zn15  1  0.50000000  0.26323000  0.12420000  1.0
  Ni  Ni16  1  0.75000000  0.74999000  0.88239000  1.0
  Ni  Ni17  1  0.75000000  0.00000000  0.96080000  1.0
  Ni  Ni18  1  0.75067000  0.75201000  0.04154000  1.0
  Ni  Ni19  1  0.72429000  0.00000000  0.11590000  1.0
  Ni  Ni20  1  0.75000000  0.25001000  0.88239000  1.0
  Ni  Ni21  1  0.75000000  0.50000000  0.96080000  1.0
  Ni  Ni22  1  0.75067000  0.24799000  0.04154000  1.0
  Ni  Ni23  1  0.76109000  0.50000000  0.11288000  1.0
  Ni  Ni24  1  0.25000000  0.74999000  0.88239000  1.0
  Ni  Ni25  1  0.25000000  0.00000000  0.96080000  1.0
  Ni  Ni26  1  0.24933000  0.75201000  0.04154000  1.0
  Ni  Ni27  1  0.27571000  0.00000000  0.11590000  1.0
  Ni  Ni28  1  0.25000000  0.25001000  0.88239000  1.0
  Ni  Ni29  1  0.25000000  0.50000000  0.96080000  1.0
  Ni  Ni30  1  0.24933000  0.24799000  0.04154000  1.0
  Ni  Ni31  1  0.23891000  0.50000000  0.11288000  1.0
  C  C32  1  0.00000000  0.00000000  0.14465000  1.0
