# generated using pymatgen
data_Nb8Rh24CO
_symmetry_space_group_name_H-M   'P 1'
_cell_length_a   7.81819000
_cell_length_b   7.81819000
_cell_length_c   25.86360000
_cell_angle_alpha   90.00000000
_cell_angle_beta   90.00000000
_cell_angle_gamma   90.00000000
_symmetry_Int_Tables_number   1
_chemical_formula_structural   Nb8Rh24CO
_chemical_formula_sum   'Nb8 Rh24 C1 O1'
_cell_volume   1580.88914024
_cell_formula_units_Z   1
loop_
 _symmetry_equiv_pos_site_id
 _symmetry_equiv_pos_as_xyz
  1  'x, y, z'
loop_
 _atom_site_type_symbol
 _atom_site_label
 _atom_site_symmetry_multiplicity
 _atom_site_fract_x
 _atom_site_fract_y
 _atom_site_fract_z
 _atom_site_occupancy
  Nb  Nb0  1  0.75000000  0.75000000  0.11336000  1.0
  Nb  Nb1  1  0.75000000  0.75000000  0.96221000  1.0
  Nb  Nb2  1  0.75000000  0.25000000  0.11336000  1.0
  Nb  Nb3  1  0.75000000  0.25000000  0.96221000  1.0
  Nb  Nb4  1  0.25000000  0.75000000  0.11336000  1.0
  Nb  Nb5  1  0.25000000  0.75000000  0.96221000  1.0
  Nb  Nb6  1  0.25000000  0.25000000  0.11336000  1.0
  Nb  Nb7  1  0.25000000  0.25000000  0.96221000  1.0
  Rh  Rh8  1  0.75000000  0.00000000  0.03779000  1.0
  Rh  Rh9  1  0.00000000  0.75000000  0.03779000  1.0
  Rh  Rh10  1  0.00000000  0.00000000  0.11336000  1.0
  Rh  Rh11  1  0.75000000  0.00000000  0.88664000  1.0
  Rh  Rh12  1  0.00000000  0.75000000  0.88664000  1.0
  Rh  Rh13  1  0.00000000  0.00000000  0.96221000  1.0
  Rh  Rh14  1  0.75000000  0.50000000  0.03779000  1.0
  Rh  Rh15  1  0.00000000  0.25000000  0.03779000  1.0
  Rh  Rh16  1  0.00000000  0.50000000  0.11336000  1.0
  Rh  Rh17  1  0.75000000  0.50000000  0.88664000  1.0
  Rh  Rh18  1  0.00000000  0.25000000  0.88664000  1.0
  Rh  Rh19  1  0.00000000  0.50000000  0.96221000  1.0
  Rh  Rh20  1  0.25000000  0.00000000  0.03779000  1.0
  Rh  Rh21  1  0.50000000  0.75000000  0.03779000  1.0
  Rh  Rh22  1  0.50000000  0.00000000  0.11336000  1.0
  Rh  Rh23  1  0.25000000  0.00000000  0.88664000  1.0
  Rh  Rh24  1  0.50000000  0.75000000  0.88664000  1.0
  Rh  Rh25  1  0.50000000  0.00000000  0.96221000  1.0
  Rh  Rh26  1  0.25000000  0.50000000  0.03779000  1.0
  Rh  Rh27  1  0.50000000  0.25000000  0.03779000  1.0
  Rh  Rh28  1  0.50000000  0.50000000  0.11336000  1.0
  Rh  Rh29  1  0.25000000  0.50000000  0.88664000  1.0
  Rh  Rh30  1  0.50000000  0.25000000  0.88664000  1.0
  Rh  Rh31  1  0.50000000  0.50000000  0.96221000  1.0
  C  C32  1  0.00000000  0.00000000  0.18682000  1.0
  O  O33  1  0.00000000  0.00000000  0.23128000  1.0
