# generated using pymatgen
data_Si8Ni24CO
_symmetry_space_group_name_H-M   'P 1'
_cell_length_a   7.02942000
_cell_length_b   7.02942000
_cell_length_c   25.27210000
_cell_angle_alpha   90.00000000
_cell_angle_beta   90.00000000
_cell_angle_gamma   90.00000000
_symmetry_Int_Tables_number   1
_chemical_formula_structural   Si8Ni24CO
_chemical_formula_sum   'Si8 Ni24 C1 O1'
_cell_volume   1248.76384647
_cell_formula_units_Z   1
loop_
 _symmetry_equiv_pos_site_id
 _symmetry_equiv_pos_as_xyz
  1  'x, y, z'
loop_
 _atom_site_type_symbol
 _atom_site_label
 _atom_site_symmetry_multiplicity
 _atom_site_fract_x
 _atom_site_fract_y
 _atom_site_fract_z
 _atom_site_occupancy
  Si  Si0  1  0.74723000  0.74723000  0.09816000  1.0
  Si  Si1  1  0.75000000  0.75000000  0.96523000  1.0
  Si  Si2  1  0.74723000  0.25277000  0.09816000  1.0
  Si  Si3  1  0.75000000  0.25000000  0.96523000  1.0
  Si  Si4  1  0.25277000  0.74723000  0.09816000  1.0
  Si  Si5  1  0.25000000  0.75000000  0.96523000  1.0
  Si  Si6  1  0.25277000  0.25277000  0.09816000  1.0
  Si  Si7  1  0.25000000  0.25000000  0.96523000  1.0
  Ni  Ni8  1  0.75218000  0.00000000  0.03657000  1.0
  Ni  Ni9  1  0.00000000  0.75218000  0.03657000  1.0
  Ni  Ni10  1  0.00000000  0.00000000  0.11426000  1.0
  Ni  Ni11  1  0.75000000  0.00000000  0.89569000  1.0
  Ni  Ni12  1  0.00000000  0.75000000  0.89569000  1.0
  Ni  Ni13  1  0.00000000  0.00000000  0.96523000  1.0
  Ni  Ni14  1  0.75028000  0.50000000  0.03498000  1.0
  Ni  Ni15  1  0.00000000  0.24782000  0.03657000  1.0
  Ni  Ni16  1  0.00000000  0.50000000  0.10725000  1.0
  Ni  Ni17  1  0.75000000  0.50000000  0.89569000  1.0
  Ni  Ni18  1  0.00000000  0.25000000  0.89569000  1.0
  Ni  Ni19  1  0.00000000  0.50000000  0.96523000  1.0
  Ni  Ni20  1  0.24782000  0.00000000  0.03657000  1.0
  Ni  Ni21  1  0.50000000  0.75028000  0.03498000  1.0
  Ni  Ni22  1  0.50000000  0.00000000  0.10725000  1.0
  Ni  Ni23  1  0.25000000  0.00000000  0.89569000  1.0
  Ni  Ni24  1  0.50000000  0.75000000  0.89569000  1.0
  Ni  Ni25  1  0.50000000  0.00000000  0.96523000  1.0
  Ni  Ni26  1  0.24972000  0.50000000  0.03498000  1.0
  Ni  Ni27  1  0.50000000  0.24972000  0.03498000  1.0
  Ni  Ni28  1  0.50000000  0.50000000  0.10799000  1.0
  Ni  Ni29  1  0.25000000  0.50000000  0.89569000  1.0
  Ni  Ni30  1  0.50000000  0.25000000  0.89569000  1.0
  Ni  Ni31  1  0.50000000  0.50000000  0.96523000  1.0
  C  C32  1  0.00000000  0.00000000  0.18512000  1.0
  O  O33  1  0.00000000  0.00000000  0.23064000  1.0
