# generated using pymatgen
data_Y8Sc8In8Pd8CO
_symmetry_space_group_name_H-M   Pmm2
_cell_length_a   7.36232000
_cell_length_b   10.11530000
_cell_length_c   27.23180000
_cell_angle_alpha   90.00000000
_cell_angle_beta   90.00000000
_cell_angle_gamma   90.00000000
_symmetry_Int_Tables_number   25
_chemical_formula_structural   Y8Sc8In8Pd8CO
_chemical_formula_sum   'Y8 Sc8 In8 Pd8 C1 O1'
_cell_volume   2028.00866549
_cell_formula_units_Z   1
loop_
 _symmetry_equiv_pos_site_id
 _symmetry_equiv_pos_as_xyz
  1  'x, y, z'
  2  '-x, -y, z'
  3  '-x, y, z'
  4  'x, -y, z'
loop_
 _atom_site_type_symbol
 _atom_site_label
 _atom_site_symmetry_multiplicity
 _atom_site_fract_x
 _atom_site_fract_y
 _atom_site_fract_z
 _atom_site_occupancy
  Y  Y0  2  0.25000000  0.00000000  0.13278000  1.0
  Y  Y1  2  0.25000000  0.00000000  0.95574000  1.0
  Y  Y2  2  0.25000000  0.50000000  0.13278000  1.0
  Y  Y3  2  0.25000000  0.50000000  0.95574000  1.0
  Sc  Sc4  4  0.25000000  0.25000000  0.04426000  1.0
  Sc  Sc5  4  0.25000000  0.25000000  0.86722000  1.0
  In  In6  2  0.00000000  0.25000000  0.13278000  1.0
  In  In7  2  0.00000000  0.25000000  0.95574000  1.0
  In  In8  2  0.50000000  0.25000000  0.13278000  1.0
  In  In9  2  0.50000000  0.25000000  0.95574000  1.0
  Pd  Pd10  1  0.00000000  0.00000000  0.04426000  1.0
  Pd  Pd11  1  0.00000000  0.00000000  0.86722000  1.0
  Pd  Pd12  1  0.00000000  0.50000000  0.04426000  1.0
  Pd  Pd13  1  0.00000000  0.50000000  0.86722000  1.0
  Pd  Pd14  1  0.50000000  0.00000000  0.04426000  1.0
  Pd  Pd15  1  0.50000000  0.00000000  0.86722000  1.0
  Pd  Pd16  1  0.50000000  0.50000000  0.04426000  1.0
  Pd  Pd17  1  0.50000000  0.50000000  0.86722000  1.0
  C  C18  1  0.00000000  0.00000000  0.79745000  1.0
  O  O19  1  0.00000000  0.00000000  0.75522000  1.0
