data_image0
_chemical_formula_structural       Al16Ni16CO
_chemical_formula_sum              "Al16 Ni16 C1 O1"
_cell_length_a       5.79956
_cell_length_b       8.20182
_cell_length_c       26.1514
_cell_angle_alpha    90
_cell_angle_beta     90
_cell_angle_gamma    90

_space_group_name_H-M_alt    "P 1"
_space_group_IT_number       1

loop_
  _space_group_symop_operation_xyz
  'x, y, z'

loop_
  _atom_site_type_symbol
  _atom_site_label
  _atom_site_symmetry_multiplicity
  _atom_site_fract_x
  _atom_site_fract_y
  _atom_site_fract_z
  _atom_site_occupancy
  Al  Al1       1.0  0.25000  0.25000  0.88239  1.0000
  Al  Al2       1.0  0.25000  0.00000  0.96080  1.0000
  Al  Al3       1.0  0.25000  0.25133  0.03899  1.0000
  Al  Al4       1.0  0.25000  1.00000  0.12168  1.0000
  Al  Al5       1.0  0.25000  0.75000  0.88239  1.0000
  Al  Al6       1.0  0.25000  0.50000  0.96080  1.0000
  Al  Al7       1.0  0.24999  0.74866  0.03899  1.0000
  Al  Al8       1.0  0.25000  0.50000  0.11987  1.0000
  Al  Al9       1.0  0.75000  0.25000  0.88239  1.0000
  Al  Al10      1.0  0.75000  0.00000  0.96080  1.0000
  Al  Al11      1.0  0.75000  0.24973  0.03841  1.0000
  Al  Al12      1.0  0.75000  1.00000  0.11967  1.0000
  Al  Al13      1.0  0.75000  0.75000  0.88239  1.0000
  Al  Al14      1.0  0.75000  0.50000  0.96080  1.0000
  Al  Al15      1.0  0.75001  0.75026  0.03841  1.0000
  Al  Al16      1.0  0.75000  0.50000  0.12005  1.0000
  Ni  Ni1       1.0  0.00000  0.00000  0.88239  1.0000
  Ni  Ni2       1.0  0.00000  0.25000  0.96080  1.0000
  Ni  Ni3       1.0  0.00234  0.00000  0.03919  1.0000
  Ni  Ni4       1.0  0.99766  0.25183  0.11282  1.0000
  Ni  Ni5       1.0  0.00000  0.50000  0.88239  1.0000
  Ni  Ni6       1.0  0.00000  0.75000  0.96080  1.0000
  Ni  Ni7       1.0  0.99931  0.49998  0.03768  1.0000
  Ni  Ni8       1.0  0.99765  0.74815  0.11282  1.0000
  Ni  Ni9       1.0  0.50000  0.00000  0.88239  1.0000
  Ni  Ni10      1.0  0.50000  0.25000  0.96080  1.0000
  Ni  Ni11      1.0  0.49767  0.99999  0.03920  1.0000
  Ni  Ni12      1.0  0.50234  0.25184  0.11282  1.0000
  Ni  Ni13      1.0  0.50000  0.50000  0.88239  1.0000
  Ni  Ni14      1.0  0.50000  0.75000  0.96080  1.0000
  Ni  Ni15      1.0  0.50068  0.50001  0.03768  1.0000
  Ni  Ni16      1.0  0.50235  0.74817  0.11282  1.0000
  C   C1        1.0  0.25000  0.99999  0.19946  1.0000
  O   O1        1.0  0.25000  0.99999  0.24334  1.0000
