data_image0
_chemical_formula_structural       Li8Y8Mg8In8CO
_chemical_formula_sum              "Li8 Y8 Mg8 In8 C1 O1"
_cell_length_a       7.08651
_cell_length_b       10.0218
_cell_length_c       27.5164
_cell_angle_alpha    90
_cell_angle_beta     90
_cell_angle_gamma    90

_space_group_name_H-M_alt    "P 1"
_space_group_IT_number       1

loop_
  _space_group_symop_operation_xyz
  'x, y, z'

loop_
  _atom_site_type_symbol
  _atom_site_label
  _atom_site_symmetry_multiplicity
  _atom_site_fract_x
  _atom_site_fract_y
  _atom_site_fract_z
  _atom_site_occupancy
  Li  Li1       1.0  0.00000  0.25000  0.95447  1.0000
  Li  Li2       1.0  0.00000  0.75000  0.95447  1.0000
  Li  Li3       1.0  0.50000  0.50000  0.86342  1.0000
  Li  Li4       1.0  0.50000  0.00000  0.86342  1.0000
  Li  Li5       1.0  0.93593  0.75401  0.17539  1.0000
  Li  Li6       1.0  0.93590  0.24598  0.17539  1.0000
  Li  Li7       1.0  0.48697  0.00001  0.04867  1.0000
  Li  Li8       1.0  0.48824  0.50000  0.05075  1.0000
  Y   Y1        1.0  0.25000  0.00000  0.95447  1.0000
  Y   Y2        1.0  0.25000  0.50000  0.95447  1.0000
  Y   Y3        1.0  0.75000  0.25000  0.86342  1.0000
  Y   Y4        1.0  0.75000  0.75000  0.86342  1.0000
  Y   Y5        1.0  0.22308  0.49999  0.13965  1.0000
  Y   Y6        1.0  0.22273  0.00001  0.13786  1.0000
  Y   Y7        1.0  0.74420  0.75041  0.05385  1.0000
  Y   Y8        1.0  0.74417  0.24960  0.05385  1.0000
  Mg  Mg1       1.0  0.75000  0.00000  0.95447  1.0000
  Mg  Mg2       1.0  0.75000  0.50000  0.95447  1.0000
  Mg  Mg3       1.0  0.25000  0.25000  0.86342  1.0000
  Mg  Mg4       1.0  0.25000  0.75000  0.86342  1.0000
  Mg  Mg5       1.0  0.73702  0.50000  0.14178  1.0000
  Mg  Mg6       1.0  0.73418  0.00000  0.13894  1.0000
  Mg  Mg7       1.0  0.24555  0.74926  0.04819  1.0000
  Mg  Mg8       1.0  0.24553  0.25073  0.04819  1.0000
  In  In1       1.0  0.00000  0.00000  0.86342  1.0000
  In  In2       1.0  0.00000  0.50000  0.86342  1.0000
  In  In3       1.0  0.50000  0.75000  0.95447  1.0000
  In  In4       1.0  0.50000  0.25000  0.95447  1.0000
  In  In5       1.0  0.99308  0.50000  0.04410  1.0000
  In  In6       1.0  0.99090  0.00000  0.04299  1.0000
  In  In7       1.0  0.48133  0.24954  0.14670  1.0000
  In  In8       1.0  0.48134  0.75045  0.14669  1.0000
  C   C1        1.0  0.16040  0.00000  0.22332  1.0000
  O   O1        1.0  0.14100  0.99999  0.26523  1.0000
