data_image0
_chemical_formula_structural       Li16Ga8Au8CO
_chemical_formula_sum              "Li16 Ga8 Au8 C1 O1"
_cell_length_a       6.29417
_cell_length_b       8.9013
_cell_length_c       26.676
_cell_angle_alpha    90
_cell_angle_beta     90
_cell_angle_gamma    90

_space_group_name_H-M_alt    "P 1"
_space_group_IT_number       1

loop_
  _space_group_symop_operation_xyz
  'x, y, z'

loop_
  _atom_site_type_symbol
  _atom_site_label
  _atom_site_symmetry_multiplicity
  _atom_site_fract_x
  _atom_site_fract_y
  _atom_site_fract_z
  _atom_site_occupancy
  Li  Li1       1.0  0.00000  0.75000  0.95829  1.0000
  Li  Li2       1.0  0.50000  0.00000  0.87487  1.0000
  Li  Li3       1.0  0.00000  0.25000  0.95829  1.0000
  Li  Li4       1.0  0.50000  0.50000  0.87487  1.0000
  Li  Li5       1.0  0.25000  0.25000  0.87487  1.0000
  Li  Li6       1.0  0.25000  0.75000  0.87487  1.0000
  Li  Li7       1.0  0.75000  0.50000  0.95829  1.0000
  Li  Li8       1.0  0.75000  0.00000  0.95829  1.0000
  Li  Li9       1.0  0.02180  0.24477  0.12968  1.0000
  Li  Li10      1.0  0.50899  0.50000  0.03544  1.0000
  Li  Li11      1.0  0.02180  0.75523  0.12968  1.0000
  Li  Li12      1.0  0.51566  0.00001  0.03557  1.0000
  Li  Li13      1.0  0.25314  0.75090  0.04192  1.0000
  Li  Li14      1.0  0.25308  0.24909  0.04191  1.0000
  Li  Li15      1.0  0.72916  0.00000  0.12346  1.0000
  Li  Li16      1.0  0.72910  0.50000  0.12180  1.0000
  Ga  Ga1       1.0  0.00000  0.00000  0.87487  1.0000
  Ga  Ga2       1.0  0.50000  0.25000  0.95829  1.0000
  Ga  Ga3       1.0  0.50000  0.75000  0.95829  1.0000
  Ga  Ga4       1.0  0.00000  0.50000  0.87487  1.0000
  Ga  Ga5       1.0  0.99540  0.50006  0.04033  1.0000
  Ga  Ga6       1.0  0.48610  0.74895  0.13343  1.0000
  Ga  Ga7       1.0  0.48608  0.25104  0.13342  1.0000
  Ga  Ga8       1.0  0.99302  0.00002  0.04124  1.0000
  Au  Au1       1.0  0.25000  0.00000  0.95829  1.0000
  Au  Au2       1.0  0.25000  0.50000  0.95829  1.0000
  Au  Au3       1.0  0.75000  0.75000  0.87487  1.0000
  Au  Au4       1.0  0.75000  0.25000  0.87487  1.0000
  Au  Au5       1.0  0.27247  0.50000  0.11548  1.0000
  Au  Au6       1.0  0.27991  0.99999  0.11416  1.0000
  Au  Au7       1.0  0.74800  0.25052  0.04720  1.0000
  Au  Au8       1.0  0.74800  0.74949  0.04720  1.0000
  C   C1        1.0  0.80643  0.00000  0.19956  1.0000
  O   O1        1.0  0.81927  0.99999  0.24238  1.0000
