# generated using pymatgen
data_Li16Ga8Au8CO
_symmetry_space_group_name_H-M   'P 1'
_cell_length_a   8.90130000
_cell_length_b   6.29417000
_cell_length_c   26.67600000
_cell_angle_alpha   90.00000000
_cell_angle_beta   90.00000000
_cell_angle_gamma   90.00000000
_symmetry_Int_Tables_number   1
_chemical_formula_structural   Li16Ga8Au8CO
_chemical_formula_sum   'Li16 Ga8 Au8 C1 O1'
_cell_volume   1494.55745665
_cell_formula_units_Z   1
loop_
 _symmetry_equiv_pos_site_id
 _symmetry_equiv_pos_as_xyz
  1  'x, y, z'
loop_
 _atom_site_type_symbol
 _atom_site_label
 _atom_site_symmetry_multiplicity
 _atom_site_fract_x
 _atom_site_fract_y
 _atom_site_fract_z
 _atom_site_occupancy
  Li  Li0  1  0.75000000  0.00000000  0.04171000  1.0
  Li  Li1  1  0.00000000  0.50000000  0.12513000  1.0
  Li  Li2  1  0.25000000  0.00000000  0.04171000  1.0
  Li  Li3  1  0.50000000  0.50000000  0.12513000  1.0
  Li  Li4  1  0.25000000  0.25000000  0.12513000  1.0
  Li  Li5  1  0.75000000  0.25000000  0.12513000  1.0
  Li  Li6  1  0.50000000  0.75000000  0.04171000  1.0
  Li  Li7  1  0.00000000  0.75000000  0.04171000  1.0
  Li  Li8  1  0.24493000  0.01994000  0.87061000  1.0
  Li  Li9  1  0.50000000  0.51047000  0.96455000  1.0
  Li  Li10  1  0.75507000  0.01994000  0.87061000  1.0
  Li  Li11  1  0.00000000  0.51505000  0.96467000  1.0
  Li  Li12  1  0.75069000  0.25375000  0.95813000  1.0
  Li  Li13  1  0.24931000  0.25375000  0.95813000  1.0
  Li  Li14  1  0.00000000  0.72879000  0.87594000  1.0
  Li  Li15  1  0.50000000  0.73002000  0.87802000  1.0
  Ga  Ga16  1  0.00000000  0.00000000  0.12513000  1.0
  Ga  Ga17  1  0.25000000  0.50000000  0.04171000  1.0
  Ga  Ga18  1  0.75000000  0.50000000  0.04171000  1.0
  Ga  Ga19  1  0.50000000  0.00000000  0.12513000  1.0
  Ga  Ga20  1  0.50000000  0.99515000  0.95932000  1.0
  Ga  Ga21  1  0.74916000  0.48634000  0.86681000  1.0
  Ga  Ga22  1  0.25084000  0.48634000  0.86681000  1.0
  Ga  Ga23  1  0.00000000  0.99376000  0.95886000  1.0
  Au  Au24  1  0.00000000  0.25000000  0.04171000  1.0
  Au  Au25  1  0.50000000  0.25000000  0.04171000  1.0
  Au  Au26  1  0.75000000  0.75000000  0.12513000  1.0
  Au  Au27  1  0.25000000  0.75000000  0.12513000  1.0
  Au  Au28  1  0.50000000  0.27197000  0.88433000  1.0
  Au  Au29  1  0.00000000  0.28025000  0.88574000  1.0
  Au  Au30  1  0.25048000  0.74838000  0.95287000  1.0
  Au  Au31  1  0.74952000  0.74838000  0.95287000  1.0
  C  C32  1  0.00000000  0.80821000  0.80092000  1.0
  O  O33  1  0.00000000  0.82208000  0.75804000  1.0
