data_image0
_chemical_formula_structural       Ga16Ru16C
_chemical_formula_sum              "Ga16 Ru16 C1"
_cell_length_a       6.07363
_cell_length_b       8.58941
_cell_length_c       26.4421
_cell_angle_alpha    90
_cell_angle_beta     90
_cell_angle_gamma    90

_space_group_name_H-M_alt    "P 1"
_space_group_IT_number       1

loop_
  _space_group_symop_operation_xyz
  'x, y, z'

loop_
  _atom_site_type_symbol
  _atom_site_label
  _atom_site_symmetry_multiplicity
  _atom_site_fract_x
  _atom_site_fract_y
  _atom_site_fract_z
  _atom_site_occupancy
  Ga  Ga1       1.0  0.00000  0.00000  0.87819  1.0000
  Ga  Ga2       1.0  0.00000  0.25000  0.95940  1.0000
  Ga  Ga3       1.0  1.00000  0.99998  0.04006  1.0000
  Ga  Ga4       1.0  0.00000  0.26587  0.12420  1.0000
  Ga  Ga5       1.0  0.00000  0.50000  0.87819  1.0000
  Ga  Ga6       1.0  0.00000  0.75000  0.95940  1.0000
  Ga  Ga7       1.0  1.00000  0.50002  0.03948  1.0000
  Ga  Ga8       1.0  1.00000  0.73413  0.12419  1.0000
  Ga  Ga9       1.0  0.50000  0.00000  0.87819  1.0000
  Ga  Ga10      1.0  0.50000  0.25000  0.95940  1.0000
  Ga  Ga11      1.0  0.50000  0.99998  0.03783  1.0000
  Ga  Ga12      1.0  0.50000  0.24721  0.12653  1.0000
  Ga  Ga13      1.0  0.50000  0.50000  0.87819  1.0000
  Ga  Ga14      1.0  0.50000  0.75000  0.95940  1.0000
  Ga  Ga15      1.0  0.50000  0.50002  0.03859  1.0000
  Ga  Ga16      1.0  0.50000  0.75279  0.12653  1.0000
  Ru  Ru1       1.0  0.25000  0.25000  0.87819  1.0000
  Ru  Ru2       1.0  0.25000  0.00000  0.95940  1.0000
  Ru  Ru3       1.0  0.24883  0.24752  0.04004  1.0000
  Ru  Ru4       1.0  0.24334  0.00000  0.12287  1.0000
  Ru  Ru5       1.0  0.25000  0.75000  0.87819  1.0000
  Ru  Ru6       1.0  0.25000  0.50000  0.95940  1.0000
  Ru  Ru7       1.0  0.24883  0.75247  0.04004  1.0000
  Ru  Ru8       1.0  0.26115  0.50000  0.11800  1.0000
  Ru  Ru9       1.0  0.75000  0.25000  0.87819  1.0000
  Ru  Ru10      1.0  0.75000  0.00000  0.95940  1.0000
  Ru  Ru11      1.0  0.75117  0.24752  0.04004  1.0000
  Ru  Ru12      1.0  0.75666  0.00000  0.12287  1.0000
  Ru  Ru13      1.0  0.75000  0.75000  0.87819  1.0000
  Ru  Ru14      1.0  0.75000  0.50000  0.95940  1.0000
  Ru  Ru15      1.0  0.75117  0.75247  0.04004  1.0000
  Ru  Ru16      1.0  0.73885  0.50000  0.11800  1.0000
  C   C1        1.0  1.00000  1.00000  0.16460  1.0000
