# generated using pymatgen
data_Ga16Ru16C
_symmetry_space_group_name_H-M   Pmm2
_cell_length_a   6.07363000
_cell_length_b   8.58941000
_cell_length_c   26.44210000
_cell_angle_alpha   90.00000000
_cell_angle_beta   90.00000000
_cell_angle_gamma   90.00000000
_symmetry_Int_Tables_number   25
_chemical_formula_structural   Ga16Ru16C
_chemical_formula_sum   'Ga16 Ru16 C1'
_cell_volume   1379.45522464
_cell_formula_units_Z   1
loop_
 _symmetry_equiv_pos_site_id
 _symmetry_equiv_pos_as_xyz
  1  'x, y, z'
  2  '-x, -y, z'
  3  '-x, y, z'
  4  'x, -y, z'
loop_
 _atom_site_type_symbol
 _atom_site_label
 _atom_site_symmetry_multiplicity
 _atom_site_fract_x
 _atom_site_fract_y
 _atom_site_fract_z
 _atom_site_occupancy
  Ga  Ga0  2  0.00000000  0.25000000  0.95940000  1.0
  Ga  Ga1  2  0.00000000  0.26587000  0.12420000  1.0
  Ga  Ga2  2  0.50000000  0.24721000  0.12653000  1.0
  Ga  Ga3  2  0.50000000  0.25000000  0.95940000  1.0
  Ga  Ga4  1  0.00000000  0.00000000  0.04006000  1.0
  Ga  Ga5  1  0.00000000  0.00000000  0.87819000  1.0
  Ga  Ga6  1  0.00000000  0.50000000  0.03948000  1.0
  Ga  Ga7  1  0.00000000  0.50000000  0.87819000  1.0
  Ga  Ga8  1  0.50000000  0.00000000  0.03783000  1.0
  Ga  Ga9  1  0.50000000  0.00000000  0.87819000  1.0
  Ga  Ga10  1  0.50000000  0.50000000  0.03859000  1.0
  Ga  Ga11  1  0.50000000  0.50000000  0.87819000  1.0
  Ru  Ru12  4  0.24883000  0.24752000  0.04004000  1.0
  Ru  Ru13  4  0.25000000  0.25000000  0.87819000  1.0
  Ru  Ru14  2  0.24334000  0.00000000  0.12287000  1.0
  Ru  Ru15  2  0.25000000  0.00000000  0.95940000  1.0
  Ru  Ru16  2  0.25000000  0.50000000  0.95940000  1.0
  Ru  Ru17  2  0.26115000  0.50000000  0.11800000  1.0
  C  C18  1  0.00000000  0.00000000  0.16460000  1.0
