# generated using pymatgen
data_Y4Sc4Ga4Pd4CO
_symmetry_space_group_name_H-M   P1
_cell_length_a   6.83834000
_cell_length_b   7.06732000
_cell_length_c   25.12490000
_cell_angle_alpha   90.00000000
_cell_angle_beta   90.00000000
_cell_angle_gamma   90.00000000
_symmetry_Int_Tables_number   1
_chemical_formula_structural   Y4Sc4Ga4Pd4CO
_chemical_formula_sum   'Y4 Sc4 Ga4 Pd4 C1 O1'
_cell_volume   1214.25468548
_cell_formula_units_Z   1
loop_
 _symmetry_equiv_pos_site_id
 _symmetry_equiv_pos_as_xyz
  1  'x, y, z'
loop_
 _atom_site_type_symbol
 _atom_site_label
 _atom_site_symmetry_multiplicity
 _atom_site_fract_x
 _atom_site_fract_y
 _atom_site_fract_z
 _atom_site_occupancy
  Y  Y0  1  0.26423000  0.75042000  0.95814000  1.0
  Y  Y1  1  0.26435000  0.24962000  0.95813000  1.0
  Y  Y2  1  0.77900000  0.25000000  0.10199000  1.0
  Y  Y3  1  0.77900000  0.75000000  0.10199000  1.0
  Sc  Sc4  1  0.27900000  0.25000000  0.10199000  1.0
  Sc  Sc5  1  0.27900000  0.75000000  0.10199000  1.0
  Sc  Sc6  1  0.77309000  0.75139000  0.97198000  1.0
  Sc  Sc7  1  0.77313000  0.24881000  0.97197000  1.0
  Ga  Ga8  1  0.51933000  0.00000000  0.03400000  1.0
  Ga  Ga9  1  0.51933000  0.50000000  0.03400000  1.0
  Ga  Ga10  1  0.94551000  0.99993000  0.89742000  1.0
  Ga  Ga11  1  0.97130000  0.50022000  0.89711000  1.0
  Pd  Pd12  1  0.01933000  0.00000000  0.03400000  1.0
  Pd  Pd13  1  0.01933000  0.50000000  0.03400000  1.0
  Pd  Pd14  1  0.55053000  0.99998000  0.90821000  1.0
  Pd  Pd15  1  0.56724000  0.50015000  0.91452000  1.0
  C  C16  1  0.42469000  0.99996000  0.83663000  1.0
  O  O17  1  0.38506000  0.99991000  0.79211000  1.0
