data_image0
_chemical_formula_structural       V8Ga8Ni16C
_chemical_formula_sum              "V8 Ga8 Ni16 C1"
_cell_length_a       5.8235
_cell_length_b       8.23567
_cell_length_c       26.1768
_cell_angle_alpha    90
_cell_angle_beta     90
_cell_angle_gamma    90

_space_group_name_H-M_alt    "P 1"
_space_group_IT_number       1

loop_
  _space_group_symop_operation_xyz
  'x, y, z'

loop_
  _atom_site_type_symbol
  _atom_site_label
  _atom_site_symmetry_multiplicity
  _atom_site_fract_x
  _atom_site_fract_y
  _atom_site_fract_z
  _atom_site_occupancy
  V   V1        1.0  0.00000  0.00000  0.88202  1.0000
  V   V2        1.0  0.50000  0.25000  0.96067  1.0000
  V   V3        1.0  0.50000  0.75000  0.96067  1.0000
  V   V4        1.0  0.00000  0.50000  0.88202  1.0000
  V   V5        1.0  0.99299  0.50558  0.04000  1.0000
  V   V6        1.0  0.48194  0.74997  0.11577  1.0000
  V   V7        1.0  0.53462  0.25003  0.11199  1.0000
  V   V8        1.0  0.99304  0.99432  0.03998  1.0000
  Ga  Ga1       1.0  0.00000  0.75000  0.96067  1.0000
  Ga  Ga2       1.0  0.50000  0.00000  0.88202  1.0000
  Ga  Ga3       1.0  0.00000  0.25000  0.96067  1.0000
  Ga  Ga4       1.0  0.50000  0.50000  0.88202  1.0000
  Ga  Ga5       1.0  0.91570  0.24985  0.15045  1.0000
  Ga  Ga6       1.0  0.49103  0.48968  0.03927  1.0000
  Ga  Ga7       1.0  0.01217  0.75003  0.12102  1.0000
  Ga  Ga8       1.0  0.49096  0.01036  0.03926  1.0000
  Ni  Ni1       1.0  0.25000  0.00000  0.96067  1.0000
  Ni  Ni2       1.0  0.75000  0.50000  0.96067  1.0000
  Ni  Ni3       1.0  0.75000  0.00000  0.96067  1.0000
  Ni  Ni4       1.0  0.25000  0.50000  0.96067  1.0000
  Ni  Ni5       1.0  0.75000  0.75000  0.88202  1.0000
  Ni  Ni6       1.0  0.25000  0.25000  0.88202  1.0000
  Ni  Ni7       1.0  0.25000  0.75000  0.88202  1.0000
  Ni  Ni8       1.0  0.75000  0.25000  0.88202  1.0000
  Ni  Ni9       1.0  0.23336  0.48749  0.11789  1.0000
  Ni  Ni10      1.0  0.73694  0.98581  0.11544  1.0000
  Ni  Ni11      1.0  0.73695  0.51422  0.11546  1.0000
  Ni  Ni12      1.0  0.23339  0.01249  0.11790  1.0000
  Ni  Ni13      1.0  0.76834  0.24986  0.03674  1.0000
  Ni  Ni14      1.0  0.26548  0.75009  0.03680  1.0000
  Ni  Ni15      1.0  0.20100  0.24996  0.05216  1.0000
  Ni  Ni16      1.0  0.73755  0.75008  0.04171  1.0000
  C   C1        1.0  0.23727  0.24999  0.13358  1.0000
