# generated using pymatgen
data_V8Ga8Ni16C
_symmetry_space_group_name_H-M   'P 1'
_cell_length_a   5.82350000
_cell_length_b   8.23567000
_cell_length_c   26.17680000
_cell_angle_alpha   90.00000000
_cell_angle_beta   90.00000000
_cell_angle_gamma   90.00000000
_symmetry_Int_Tables_number   1
_chemical_formula_structural   V8Ga8Ni16C
_chemical_formula_sum   'V8 Ga8 Ni16 C1'
_cell_volume   1255.45043338
_cell_formula_units_Z   1
loop_
 _symmetry_equiv_pos_site_id
 _symmetry_equiv_pos_as_xyz
  1  'x, y, z'
loop_
 _atom_site_type_symbol
 _atom_site_label
 _atom_site_symmetry_multiplicity
 _atom_site_fract_x
 _atom_site_fract_y
 _atom_site_fract_z
 _atom_site_occupancy
  V  V0  1  0.00000000  0.00000000  0.88202000  1.0
  V  V1  1  0.50000000  0.25000000  0.96067000  1.0
  V  V2  1  0.50000000  0.75000000  0.96067000  1.0
  V  V3  1  0.00000000  0.50000000  0.88202000  1.0
  V  V4  1  0.99299000  0.50558000  0.04000000  1.0
  V  V5  1  0.48194000  0.74997000  0.11577000  1.0
  V  V6  1  0.53462000  0.25003000  0.11199000  1.0
  V  V7  1  0.99304000  0.99432000  0.03998000  1.0
  Ga  Ga8  1  0.00000000  0.75000000  0.96067000  1.0
  Ga  Ga9  1  0.50000000  0.00000000  0.88202000  1.0
  Ga  Ga10  1  0.00000000  0.25000000  0.96067000  1.0
  Ga  Ga11  1  0.50000000  0.50000000  0.88202000  1.0
  Ga  Ga12  1  0.91570000  0.24985000  0.15045000  1.0
  Ga  Ga13  1  0.49103000  0.48968000  0.03927000  1.0
  Ga  Ga14  1  0.01217000  0.75003000  0.12102000  1.0
  Ga  Ga15  1  0.49096000  0.01036000  0.03926000  1.0
  Ni  Ni16  1  0.25000000  0.00000000  0.96067000  1.0
  Ni  Ni17  1  0.75000000  0.50000000  0.96067000  1.0
  Ni  Ni18  1  0.75000000  0.00000000  0.96067000  1.0
  Ni  Ni19  1  0.25000000  0.50000000  0.96067000  1.0
  Ni  Ni20  1  0.75000000  0.75000000  0.88202000  1.0
  Ni  Ni21  1  0.25000000  0.25000000  0.88202000  1.0
  Ni  Ni22  1  0.25000000  0.75000000  0.88202000  1.0
  Ni  Ni23  1  0.75000000  0.25000000  0.88202000  1.0
  Ni  Ni24  1  0.23336000  0.48749000  0.11789000  1.0
  Ni  Ni25  1  0.73694000  0.98581000  0.11544000  1.0
  Ni  Ni26  1  0.73695000  0.51422000  0.11546000  1.0
  Ni  Ni27  1  0.23339000  0.01249000  0.11790000  1.0
  Ni  Ni28  1  0.76834000  0.24986000  0.03674000  1.0
  Ni  Ni29  1  0.26548000  0.75009000  0.03680000  1.0
  Ni  Ni30  1  0.20100000  0.24996000  0.05216000  1.0
  Ni  Ni31  1  0.73755000  0.75008000  0.04171000  1.0
  C  C32  1  0.23727000  0.24999000  0.13358000  1.0
