# generated using pymatgen
data_Li8Zn4Ge4C
_symmetry_space_group_name_H-M   'P 1'
_cell_length_a   6.18893000
_cell_length_b   6.18893000
_cell_length_c   24.64170000
_cell_angle_alpha   90.00000000
_cell_angle_beta   90.00000000
_cell_angle_gamma   90.00000000
_symmetry_Int_Tables_number   1
_chemical_formula_structural   Li8Zn4Ge4C
_chemical_formula_sum   'Li8 Zn4 Ge4 C1'
_cell_volume   943.84745084
_cell_formula_units_Z   1
loop_
 _symmetry_equiv_pos_site_id
 _symmetry_equiv_pos_as_xyz
  1  'x, y, z'
loop_
 _atom_site_type_symbol
 _atom_site_label
 _atom_site_symmetry_multiplicity
 _atom_site_fract_x
 _atom_site_fract_y
 _atom_site_fract_z
 _atom_site_occupancy
  Li  Li0  1  0.99202500  0.99202500  0.88395000  1
  Li  Li1  1  0.51068000  0.51068000  0.88572000  1
  Li  Li2  1  0.50000000  1.00000000  0.03139000  1
  Li  Li3  1  0.00000000  0.50000000  0.03139000  1
  Li  Li4  1  0.25000000  0.75000000  0.09418000  1
  Li  Li5  1  0.24953000  0.24953000  0.96135000  1
  Li  Li6  1  0.75000000  0.25000000  0.09418000  1
  Li  Li7  1  0.75018500  0.75018500  0.96777000  1
  Zn  Zn8  1  0.25006000  0.75046000  0.96628000  1
  Zn  Zn9  1  0.25000000  0.25000000  0.09418000  1
  Zn  Zn10  1  0.75046000  0.25006000  0.96628000  1
  Zn  Zn11  1  0.75000000  0.75000000  0.09418000  1
  Ge  Ge12  1  0.00000000  0.00000000  0.03139000  1
  Ge  Ge13  1  0.53366000  0.96801000  0.89054000  1
  Ge  Ge14  1  0.96801000  0.53366000  0.89054000  1
  Ge  Ge15  1  0.50000000  0.50000000  0.03139000  1
  C  C16  1  0.75126000  0.75126000  0.88242000  1
