# generated using pymatgen
data_LiMgInPb
_symmetry_space_group_name_H-M   'P 1'
_cell_length_a   10.06110000
_cell_length_b   7.11424000
_cell_length_c   27.54580000
_cell_angle_alpha   90.00000000
_cell_angle_beta   90.00000000
_cell_angle_gamma   90.00000000
_symmetry_Int_Tables_number   1
_chemical_formula_structural   LiMgInPb
_chemical_formula_sum   'Li8 Mg8 In8 Pb8'
_cell_volume   1971.64793203
_cell_formula_units_Z   8
loop_
 _symmetry_equiv_pos_site_id
 _symmetry_equiv_pos_as_xyz
  1  'x, y, z'
loop_
 _atom_site_type_symbol
 _atom_site_label
 _atom_site_symmetry_multiplicity
 _atom_site_fract_x
 _atom_site_fract_y
 _atom_site_fract_z
 _atom_site_occupancy
  Li  Li0  1  0.00000000  0.75000000  0.04566000  1.0
  Li  Li1  1  0.50000000  0.75000000  0.04566000  1.0
  Li  Li2  1  0.25000000  0.25000000  0.13697000  1.0
  Li  Li3  1  0.75000000  0.25000000  0.13697000  1.0
  Li  Li4  1  0.50000000  0.75054000  0.85997000  1.0
  Li  Li5  1  0.00000000  0.75058000  0.86036000  1.0
  Li  Li6  1  0.75024000  0.24703000  0.95028000  1.0
  Li  Li7  1  0.24976000  0.24703000  0.95028000  1.0
  Mg  Mg8  1  0.00000000  0.25000000  0.04566000  1.0
  Mg  Mg9  1  0.50000000  0.25000000  0.04566000  1.0
  Mg  Mg10  1  0.25000000  0.75000000  0.13697000  1.0
  Mg  Mg11  1  0.75000000  0.75000000  0.13697000  1.0
  Mg  Mg12  1  0.50000000  0.24902000  0.85306000  1.0
  Mg  Mg13  1  0.00000000  0.24912000  0.85337000  1.0
  Mg  Mg14  1  0.74937000  0.75233000  0.94782000  1.0
  Mg  Mg15  1  0.25063000  0.75233000  0.94782000  1.0
  In  In16  1  0.00000000  0.00000000  0.13697000  1.0
  In  In17  1  0.50000000  0.00000000  0.13697000  1.0
  In  In18  1  0.75000000  0.50000000  0.04566000  1.0
  In  In19  1  0.25000000  0.50000000  0.04566000  1.0
  In  In20  1  0.50000000  0.00683000  0.94868000  1.0
  In  In21  1  0.00000000  0.00611000  0.94889000  1.0
  In  In22  1  0.25000000  0.50340000  0.84904000  1.0
  In  In23  1  0.75000000  0.50340000  0.84904000  1.0
  Pb  Pb24  1  0.25000000  0.00000000  0.04566000  1.0
  Pb  Pb25  1  0.75000000  0.00000000  0.04566000  1.0
  Pb  Pb26  1  0.50000000  0.50000000  0.13697000  1.0
  Pb  Pb27  1  0.00000000  0.50000000  0.13697000  1.0
  Pb  Pb28  1  0.75004000  0.99340000  0.84921000  1.0
  Pb  Pb29  1  0.24996000  0.99340000  0.84921000  1.0
  Pb  Pb30  1  0.00000000  0.49625000  0.94949000  1.0
  Pb  Pb31  1  0.50000000  0.49521000  0.94933000  1.0
