# generated using pymatgen
data_Hf8Al8Cu16CO
_symmetry_space_group_name_H-M   'P 1'
_cell_length_a   6.21964000
_cell_length_b   8.79589000
_cell_length_c   26.59690000
_cell_angle_alpha   90.00000000
_cell_angle_beta   90.00000000
_cell_angle_gamma   90.00000000
_symmetry_Int_Tables_number   1
_chemical_formula_structural   Hf8Al8Cu16CO
_chemical_formula_sum   'Hf8 Al8 Cu16 C1 O1'
_cell_volume   1455.04377030
_cell_formula_units_Z   1
loop_
 _symmetry_equiv_pos_site_id
 _symmetry_equiv_pos_as_xyz
  1  'x, y, z'
loop_
 _atom_site_type_symbol
 _atom_site_label
 _atom_site_symmetry_multiplicity
 _atom_site_fract_x
 _atom_site_fract_y
 _atom_site_fract_z
 _atom_site_occupancy
  Hf  Hf0  1  0.00000000  0.75000000  0.87598000  1.0
  Hf  Hf1  1  0.50000000  0.00000000  0.95866000  1.0
  Hf  Hf2  1  0.50000000  0.50000000  0.95866000  1.0
  Hf  Hf3  1  0.00000000  0.25000000  0.87598000  1.0
  Hf  Hf4  1  0.00000000  0.25014000  0.04214000  1.0
  Hf  Hf5  1  0.50000000  0.50000000  0.12440000  1.0
  Hf  Hf6  1  0.50000000  0.00000000  0.12367000  1.0
  Hf  Hf7  1  0.00000000  0.74986000  0.04214000  1.0
  Al  Al8  1  0.00000000  0.50000000  0.95866000  1.0
  Al  Al9  1  0.50000000  0.75000000  0.87598000  1.0
  Al  Al10  1  0.00000000  0.00000000  0.95866000  1.0
  Al  Al11  1  0.50000000  0.25000000  0.87598000  1.0
  Al  Al12  1  0.00000000  0.00000000  0.12193000  1.0
  Al  Al13  1  0.50000000  0.25121000  0.04135000  1.0
  Al  Al14  1  0.00000000  0.50000000  0.12517000  1.0
  Al  Al15  1  0.50000000  0.74879000  0.04135000  1.0
  Cu  Cu16  1  0.25000000  0.75000000  0.95866000  1.0
  Cu  Cu17  1  0.75000000  0.25000000  0.95866000  1.0
  Cu  Cu18  1  0.75000000  0.75000000  0.95866000  1.0
  Cu  Cu19  1  0.25000000  0.25000000  0.95866000  1.0
  Cu  Cu20  1  0.75000000  0.50000000  0.87598000  1.0
  Cu  Cu21  1  0.25000000  0.00000000  0.87598000  1.0
  Cu  Cu22  1  0.25000000  0.50000000  0.87598000  1.0
  Cu  Cu23  1  0.75000000  0.00000000  0.87598000  1.0
  Cu  Cu24  1  0.25569000  0.25256000  0.12326000  1.0
  Cu  Cu25  1  0.74431000  0.74744000  0.12326000  1.0
  Cu  Cu26  1  0.74431000  0.25256000  0.12326000  1.0
  Cu  Cu27  1  0.25569000  0.74744000  0.12326000  1.0
  Cu  Cu28  1  0.74416000  0.00000000  0.04188000  1.0
  Cu  Cu29  1  0.25288000  0.50000000  0.04205000  1.0
  Cu  Cu30  1  0.25584000  0.00000000  0.04188000  1.0
  Cu  Cu31  1  0.74712000  0.50000000  0.04205000  1.0
  C  C32  1  0.00000000  0.00000000  0.19613000  1.0
  O  O33  1  0.00000000  0.00000000  0.23963000  1.0
