# generated using pymatgen
data_Li4Al4Ag4Sn4CO
_symmetry_space_group_name_H-M   Pm
_cell_length_a   5.95223000
_cell_length_b   8.56020000
_cell_length_c   24.45610000
_cell_angle_alpha   90.00000000
_cell_angle_beta   90.00000000
_cell_angle_gamma   90.00000000
_symmetry_Int_Tables_number   6
_chemical_formula_structural   Li4Al4Ag4Sn4CO
_chemical_formula_sum   'Li4 Al4 Ag4 Sn4 C1 O1'
_cell_volume   1246.09403647
_cell_formula_units_Z   1
loop_
 _symmetry_equiv_pos_site_id
 _symmetry_equiv_pos_as_xyz
  1  'x, y, z'
  2  'x, -y, z'
loop_
 _atom_site_type_symbol
 _atom_site_label
 _atom_site_symmetry_multiplicity
 _atom_site_fract_x
 _atom_site_fract_y
 _atom_site_fract_z
 _atom_site_occupancy
  Li  Li0  2  0.20750000  0.24551000  0.03367000  1.0
  Li  Li1  2  0.70495000  0.24999000  0.90890000  1.0
  Al  Al2  1  0.44648000  0.50000000  0.08352000  1.0
  Al  Al3  1  0.45882000  0.00000000  0.09587000  1.0
  Al  Al4  1  0.96997000  0.00000000  0.96963000  1.0
  Al  Al5  1  0.96997000  0.50000000  0.96963000  1.0
  Ag  Ag6  1  0.00201000  0.50000000  0.08331000  1.0
  Ag  Ag7  1  0.01665000  0.00000000  0.09019000  1.0
  Ag  Ag8  1  0.46997000  0.00000000  0.96963000  1.0
  Ag  Ag9  1  0.46997000  0.50000000  0.96963000  1.0
  Sn  Sn10  2  0.20495000  0.24999000  0.90890000  1.0
  Sn  Sn11  2  0.70469000  0.24422000  0.04443000  1.0
  C  C12  1  0.49259000  0.50000000  0.16356000  1.0
  O  O13  1  0.51661000  0.50000000  0.21041000  1.0
