# generated using pymatgen
data_Li4Y4In4Sn4C
_symmetry_space_group_name_H-M   'P 1'
_cell_length_a   9.04200000
_cell_length_b   6.44949000
_cell_length_c   24.82990000
_cell_angle_alpha   90.00000000
_cell_angle_beta   90.00000000
_cell_angle_gamma   90.00000000
_symmetry_Int_Tables_number   1
_chemical_formula_structural   Li4Y4In4Sn4C
_chemical_formula_sum   'Li4 Y4 In4 Sn4 C1'
_cell_volume   1447.98761381
_cell_formula_units_Z   1
loop_
 _symmetry_equiv_pos_site_id
 _symmetry_equiv_pos_as_xyz
  1  'x, y, z'
loop_
 _atom_site_type_symbol
 _atom_site_label
 _atom_site_symmetry_multiplicity
 _atom_site_fract_x
 _atom_site_fract_y
 _atom_site_fract_z
 _atom_site_occupancy
  Li  Li0  1  0.25000000  0.23636000  0.03242000  1.0
  Li  Li1  1  0.25640000  0.63287000  0.89442000  1.0
  Li  Li2  1  0.75000000  0.23636000  0.03242000  1.0
  Li  Li3  1  0.74360000  0.63287000  0.89442000  1.0
  Y  Y4  1  0.00000000  0.50000000  0.09726000  1.0
  Y  Y5  1  0.00000000  0.92462000  0.96312000  1.0
  Y  Y6  1  0.50000000  0.50000000  0.09726000  1.0
  Y  Y7  1  0.50000000  0.96000000  0.95795000  1.0
  In  In8  1  0.00000000  0.00000000  0.09726000  1.0
  In  In9  1  0.00000000  0.43663000  0.96007000  1.0
  In  In10  1  0.50000000  0.00000000  0.09726000  1.0
  In  In11  1  0.50000000  0.45883000  0.96165000  1.0
  Sn  Sn12  1  0.25000000  0.73636000  0.03242000  1.0
  Sn  Sn13  1  0.23645000  0.14865000  0.88220000  1.0
  Sn  Sn14  1  0.75000000  0.73636000  0.03242000  1.0
  Sn  Sn15  1  0.76355000  0.14865000  0.88220000  1.0
  C  C16  1  0.00000000  0.16500000  0.89462000  1.0
