# generated using pymatgen
data_Li4Y4In4Sn4C
_symmetry_space_group_name_H-M   Pm
_cell_length_a   6.44949000
_cell_length_b   9.04200000
_cell_length_c   24.82990000
_cell_angle_alpha   90.00000000
_cell_angle_beta   90.00000000
_cell_angle_gamma   90.00000000
_symmetry_Int_Tables_number   6
_chemical_formula_structural   Li4Y4In4Sn4C
_chemical_formula_sum   'Li4 Y4 In4 Sn4 C1'
_cell_volume   1447.98761381
_cell_formula_units_Z   1
loop_
 _symmetry_equiv_pos_site_id
 _symmetry_equiv_pos_as_xyz
  1  'x, y, z'
  2  'x, -y, z'
loop_
 _atom_site_type_symbol
 _atom_site_label
 _atom_site_symmetry_multiplicity
 _atom_site_fract_x
 _atom_site_fract_y
 _atom_site_fract_z
 _atom_site_occupancy
  Li  Li0  2  0.23636000  0.25000000  0.96758000  1.0
  Li  Li1  2  0.63287000  0.25640000  0.10558000  1.0
  Y  Y2  1  0.50000000  0.00000000  0.90274000  1.0
  Y  Y3  1  0.50000000  0.50000000  0.90274000  1.0
  Y  Y4  1  0.92462000  0.00000000  0.03688000  1.0
  Y  Y5  1  0.96000000  0.50000000  0.04205000  1.0
  In  In6  1  0.00000000  0.00000000  0.90274000  1.0
  In  In7  1  0.00000000  0.50000000  0.90274000  1.0
  In  In8  1  0.43663000  0.00000000  0.03993000  1.0
  In  In9  1  0.45883000  0.50000000  0.03835000  1.0
  Sn  Sn10  2  0.14865000  0.23645000  0.11780000  1.0
  Sn  Sn11  2  0.73636000  0.25000000  0.96758000  1.0
  C  C12  1  0.16500000  0.00000000  0.10538000  1.0
