# generated using pymatgen
data_LiGa2Ru
_symmetry_space_group_name_H-M   'P 1'
_cell_length_a   4.30852183
_cell_length_b   4.30852183
_cell_length_c   24.56990000
_cell_angle_alpha   90.00000000
_cell_angle_beta   90.00000000
_cell_angle_gamma   90.00000000
_symmetry_Int_Tables_number   1
_chemical_formula_structural   LiGa2Ru
_chemical_formula_sum   'Li2 Ga4 Ru2'
_cell_volume   456.09990684
_cell_formula_units_Z   2
loop_
 _symmetry_equiv_pos_site_id
 _symmetry_equiv_pos_as_xyz
  1  'x, y, z'
loop_
 _atom_site_type_symbol
 _atom_site_label
 _atom_site_symmetry_multiplicity
 _atom_site_fract_x
 _atom_site_fract_y
 _atom_site_fract_z
 _atom_site_occupancy
  Li  Li0  1  0.00000000  0.00000000  0.90700000  1.0
  Li  Li1  1  0.50000000  0.50000000  0.03100000  1.0
  Ga  Ga2  1  0.50000000  0.00000000  0.96900000  1.0
  Ga  Ga3  1  0.50000000  0.00000000  0.09300000  1.0
  Ga  Ga4  1  0.00000000  0.50000000  0.96900000  1.0
  Ga  Ga5  1  0.00000000  0.50000000  0.09300000  1.0
  Ru  Ru6  1  0.00000000  0.00000000  0.03100000  1.0
  Ru  Ru7  1  0.50000000  0.50000000  0.90700000  1.0
