# generated using pymatgen
data_Li4Al4Cu4Ge4C
_symmetry_space_group_name_H-M   Pm
_cell_length_a   5.44580000
_cell_length_b   7.77412000
_cell_length_c   24.08340000
_cell_angle_alpha   90.00000000
_cell_angle_beta   90.00000000
_cell_angle_gamma   90.00000000
_symmetry_Int_Tables_number   6
_chemical_formula_structural   Li4Al4Cu4Ge4C
_chemical_formula_sum   'Li4 Al4 Cu4 Ge4 C1'
_cell_volume   1019.60211235
_cell_formula_units_Z   1
loop_
 _symmetry_equiv_pos_site_id
 _symmetry_equiv_pos_as_xyz
  1  'x, y, z'
  2  'x, -y, z'
loop_
 _atom_site_type_symbol
 _atom_site_label
 _atom_site_symmetry_multiplicity
 _atom_site_fract_x
 _atom_site_fract_y
 _atom_site_fract_z
 _atom_site_occupancy
  Li  Li0  1  0.23350000  0.00000000  0.91522000  1.0
  Li  Li1  1  0.23350000  0.50000000  0.91522000  1.0
  Li  Li2  1  0.74563000  0.50000000  0.04168000  1.0
  Li  Li3  1  0.74807000  0.00000000  0.02121000  1.0
  Al  Al4  2  0.48900000  0.25000000  0.97174000  1.0
  Al  Al5  2  0.99330000  0.19307000  0.09689000  1.0
  Cu  Cu6  2  0.50432000  0.17700000  0.08921000  1.0
  Cu  Cu7  2  0.98900000  0.25000000  0.97174000  1.0
  Ge  Ge8  1  0.22929000  0.00000000  0.02255000  1.0
  Ge  Ge9  1  0.24245000  0.50000000  0.05439000  1.0
  Ge  Ge10  1  0.73350000  0.00000000  0.91522000  1.0
  Ge  Ge11  1  0.73350000  0.50000000  0.91522000  1.0
  C  C12  1  0.76143000  0.00000000  0.10997000  1.0
