# generated using pymatgen
data_Ni12Sn4CO
_symmetry_space_group_name_H-M   Pm
_cell_length_a   7.54412000
_cell_length_b   5.33450000
_cell_length_c   24.00090000
_cell_angle_alpha   90.00000000
_cell_angle_beta   90.00000000
_cell_angle_gamma   90.00000000
_symmetry_Int_Tables_number   6
_chemical_formula_structural   Ni12Sn4CO
_chemical_formula_sum   'Ni12 Sn4 C1 O1'
_cell_volume   965.89481506
_cell_formula_units_Z   1
loop_
 _symmetry_equiv_pos_site_id
 _symmetry_equiv_pos_as_xyz
  1  'x, y, z'
  2  'x, -y, z'
loop_
 _atom_site_type_symbol
 _atom_site_label
 _atom_site_symmetry_multiplicity
 _atom_site_fract_x
 _atom_site_fract_y
 _atom_site_fract_z
 _atom_site_occupancy
  Ni  Ni0  2  0.25000000  0.24999000  0.91665000  1.0
  Ni  Ni1  2  0.25137000  0.25523000  0.02675000  1.0
  Ni  Ni2  2  0.74866000  0.25529000  0.02676000  1.0
  Ni  Ni3  2  0.75000000  0.24999000  0.91665000  1.0
  Ni  Ni4  1  0.00000000  0.50000000  0.97222000  1.0
  Ni  Ni5  1  0.50000000  0.50000000  0.97222000  1.0
  Ni  Ni6  1  0.50007000  0.00000000  0.07795000  1.0
  Ni  Ni7  1  0.99999000  0.00000000  0.08657000  1.0
  Sn  Sn8  1  0.00000000  0.00000000  0.97222000  1.0
  Sn  Sn9  1  0.50000000  0.00000000  0.97222000  1.0
  Sn  Sn10  1  0.50002000  0.50000000  0.08647000  1.0
  Sn  Sn11  1  0.99999000  0.50000000  0.08226000  1.0
  C  C12  1  0.99999000  0.00000000  0.16066000  1.0
  O  O13  1  0.99999000  0.00000000  0.20881000  1.0
