# generated using pymatgen
data_Li8Mg8Sn8Pd8CO
_symmetry_space_group_name_H-M   Pm
_cell_length_a   6.52546000
_cell_length_b   9.22840000
_cell_length_c   26.92130000
_cell_angle_alpha   90.00000000
_cell_angle_beta   90.00000000
_cell_angle_gamma   90.00000000
_symmetry_Int_Tables_number   6
_chemical_formula_structural   Li8Mg8Sn8Pd8CO
_chemical_formula_sum   'Li8 Mg8 Sn8 Pd8 C1 O1'
_cell_volume   1621.18870774
_cell_formula_units_Z   1
loop_
 _symmetry_equiv_pos_site_id
 _symmetry_equiv_pos_as_xyz
  1  'x, y, z'
  2  'x, -y, z'
loop_
 _atom_site_type_symbol
 _atom_site_label
 _atom_site_symmetry_multiplicity
 _atom_site_fract_x
 _atom_site_fract_y
 _atom_site_fract_z
 _atom_site_occupancy
  Li  Li0  2  0.00000000  0.25000000  0.87145000  1.0
  Li  Li1  2  0.99537000  0.25271000  0.04629000  1.0
  Li  Li2  1  0.49354000  0.00000000  0.14466000  1.0
  Li  Li3  1  0.50000000  0.00000000  0.95715000  1.0
  Li  Li4  1  0.50000000  0.50000000  0.95715000  1.0
  Li  Li5  1  0.62440000  0.50000000  0.18086000  1.0
  Mg  Mg6  2  0.25000000  0.25000000  0.95715000  1.0
  Mg  Mg7  2  0.26507000  0.27413000  0.12952000  1.0
  Mg  Mg8  1  0.72810000  0.50000000  0.04767000  1.0
  Mg  Mg9  1  0.74991000  0.00000000  0.05067000  1.0
  Mg  Mg10  1  0.75000000  0.00000000  0.87145000  1.0
  Mg  Mg11  1  0.75000000  0.50000000  0.87145000  1.0
  Sn  Sn12  2  0.74671000  0.24840000  0.13393000  1.0
  Sn  Sn13  2  0.75000000  0.25000000  0.95715000  1.0
  Sn  Sn14  1  0.25000000  0.00000000  0.87145000  1.0
  Sn  Sn15  1  0.25000000  0.50000000  0.87145000  1.0
  Sn  Sn16  1  0.25152000  0.00000000  0.04557000  1.0
  Sn  Sn17  1  0.25730000  0.50000000  0.04369000  1.0
  Pd  Pd18  2  0.50000000  0.25000000  0.87145000  1.0
  Pd  Pd19  2  0.50247000  0.24519000  0.04099000  1.0
  Pd  Pd20  1  -0.00000000  0.50000000  0.95715000  1.0
  Pd  Pd21  1  -0.00000000  0.00000000  0.95715000  1.0
  Pd  Pd22  1  0.03689000  0.00000000  0.13489000  1.0
  Pd  Pd23  1  0.98961000  0.50000000  0.12206000  1.0
  C  C24  1  0.10225000  0.00000000  0.20547000  1.0
  O  O25  1  0.11700000  0.00000000  0.24835000  1.0
