data_image0
_chemical_formula_structural       In4Ni12C
_chemical_formula_sum              "In4 Ni12 C1"
_cell_length_a       7.55564
_cell_length_b       5.34265
_cell_length_c       24.007
_cell_angle_alpha    90
_cell_angle_beta     90
_cell_angle_gamma    90

_space_group_name_H-M_alt    "P 1"
_space_group_IT_number       1

loop_
  _space_group_symop_operation_xyz
  'x, y, z'

loop_
  _atom_site_type_symbol
  _atom_site_label
  _atom_site_symmetry_multiplicity
  _atom_site_fract_x
  _atom_site_fract_y
  _atom_site_fract_z
  _atom_site_occupancy
  In  In1       1.0  0.00000  0.00000  0.91655  1.0000
  In  In2       1.0  0.00000  0.50000  0.02321  1.0000
  In  In3       1.0  0.50000  0.00000  0.91655  1.0000
  In  In4       1.0  0.50004  0.50000  0.04364  1.0000
  Ni  Ni1       1.0  0.00000  0.50000  0.91655  1.0000
  Ni  Ni2       1.0  0.25000  0.75000  0.97218  1.0000
  Ni  Ni3       1.0  0.25000  0.25000  0.97218  1.0000
  Ni  Ni4       1.0  0.99995  0.00001  0.02026  1.0000
  Ni  Ni5       1.0  0.19986  0.22339  0.08324  1.0000
  Ni  Ni6       1.0  0.19984  0.77663  0.08325  1.0000
  Ni  Ni7       1.0  0.50000  0.50000  0.91655  1.0000
  Ni  Ni8       1.0  0.75000  0.75000  0.97218  1.0000
  Ni  Ni9       1.0  0.75000  0.25000  0.97218  1.0000
  Ni  Ni10      1.0  0.50016  1.00000  0.03449  1.0000
  Ni  Ni11      1.0  0.80005  0.22343  0.08324  1.0000
  Ni  Ni12      1.0  0.80004  0.77657  0.08324  1.0000
  C   C1        1.0  0.99998  0.00001  0.09779  1.0000
