data_image0
_chemical_formula_structural       PdBePdBePdBePdBePdBePdBePdBePdBeC
_chemical_formula_sum              "Pd8 Be8 C1"
_cell_length_a       5.70199
_cell_length_b       5.70199
_cell_length_c       24.2765
_cell_angle_alpha    90
_cell_angle_beta     90
_cell_angle_gamma    90

_space_group_name_H-M_alt    "P 1"
_space_group_IT_number       1

loop_
  _space_group_symop_operation_xyz
  'x, y, z'

loop_
  _atom_site_type_symbol
  _atom_site_label
  _atom_site_symmetry_multiplicity
  _atom_site_fract_x
  _atom_site_fract_y
  _atom_site_fract_z
  _atom_site_occupancy
  Pd  Pd1       1.0  0.00000  0.00000  0.88715  1.0000
  Be  Be1       1.0  0.25000  0.25000  0.94587  1.0000
  Pd  Pd2       1.0  0.00000  0.00000  0.00458  1.0000
  Be  Be2       1.0  0.25000  0.25000  0.06330  1.0000
  Pd  Pd3       1.0  0.00000  0.50000  0.88715  1.0000
  Be  Be3       1.0  0.25000  0.75000  0.94587  1.0000
  Pd  Pd4       1.0  0.00000  0.50000  0.00458  1.0000
  Be  Be4       1.0  0.25000  0.75000  0.06330  1.0000
  Pd  Pd5       1.0  0.50000  0.00000  0.88715  1.0000
  Be  Be5       1.0  0.75000  0.25000  0.94587  1.0000
  Pd  Pd6       1.0  0.50000  0.00000  0.00458  1.0000
  Be  Be6       1.0  0.75000  0.25000  0.06330  1.0000
  Pd  Pd7       1.0  0.50000  0.50000  0.88715  1.0000
  Be  Be7       1.0  0.75000  0.75000  0.94587  1.0000
  Pd  Pd8       1.0  0.50000  0.50000  0.00458  1.0000
  Be  Be8       1.0  0.75000  0.75000  0.06330  1.0000
  C   C1        1.0  0.00000  0.00000  0.09626  1.0000
