# generated using pymatgen
data_Y8Mg8In8Pd8CO
_symmetry_space_group_name_H-M   'P 1'
_cell_length_a   6.99626000
_cell_length_b   9.89420000
_cell_length_c   27.42070000
_cell_angle_alpha   90.00000000
_cell_angle_beta   90.00000000
_cell_angle_gamma   90.00000000
_symmetry_Int_Tables_number   1
_chemical_formula_structural   Y8Mg8In8Pd8CO
_chemical_formula_sum   'Y8 Mg8 In8 Pd8 C1 O1'
_cell_volume   1898.12654555
_cell_formula_units_Z   1
loop_
 _symmetry_equiv_pos_site_id
 _symmetry_equiv_pos_as_xyz
  1  'x, y, z'
loop_
 _atom_site_type_symbol
 _atom_site_label
 _atom_site_symmetry_multiplicity
 _atom_site_fract_x
 _atom_site_fract_y
 _atom_site_fract_z
 _atom_site_occupancy
  Y  Y0  1  0.75000000  0.00000000  0.95490000  1.0
  Y  Y1  1  0.75000000  0.50000000  0.95490000  1.0
  Y  Y2  1  0.25000000  0.25000000  0.86469000  1.0
  Y  Y3  1  0.25000000  0.75000000  0.86469000  1.0
  Y  Y4  1  0.73195000  0.52479000  0.14179000  1.0
  Y  Y5  1  0.73194000  0.97520000  0.14179000  1.0
  Y  Y6  1  0.26269000  0.75000000  0.04859000  1.0
  Y  Y7  1  0.25141000  0.25000000  0.04714000  1.0
  Mg  Mg8  1  0.25000000  0.00000000  0.95490000  1.0
  Mg  Mg9  1  0.25000000  0.50000000  0.95490000  1.0
  Mg  Mg10  1  0.75000000  0.25000000  0.86469000  1.0
  Mg  Mg11  1  0.75000000  0.75000000  0.86469000  1.0
  Mg  Mg12  1  0.23891000  0.48641000  0.13588000  1.0
  Mg  Mg13  1  0.23891000  0.01359000  0.13587000  1.0
  Mg  Mg14  1  0.73993000  0.75000000  0.04793000  1.0
  Mg  Mg15  1  0.73653000  0.25001000  0.04700000  1.0
  In  In16  1  0.00000000  0.00000000  0.86469000  1.0
  In  In17  1  0.00000000  0.50000000  0.86469000  1.0
  In  In18  1  0.50000000  0.75000000  0.95490000  1.0
  In  In19  1  0.50000000  0.25000000  0.95490000  1.0
  In  In20  1  0.98353000  0.50070000  0.04919000  1.0
  In  In21  1  0.98353000  0.99930000  0.04919000  1.0
  In  In22  1  0.51030000  0.24999000  0.14758000  1.0
  In  In23  1  0.41565000  0.75000000  0.16403000  1.0
  Pd  Pd24  1  0.00000000  0.25000000  0.95490000  1.0
  Pd  Pd25  1  0.00000000  0.75000000  0.95490000  1.0
  Pd  Pd26  1  0.50000000  0.50000000  0.86469000  1.0
  Pd  Pd27  1  0.50000000  0.00000000  0.86469000  1.0
  Pd  Pd28  1  0.01487000  0.74999000  0.12708000  1.0
  Pd  Pd29  1  0.97414000  0.24999000  0.12503000  1.0
  Pd  Pd30  1  0.51827000  0.00261000  0.04868000  1.0
  Pd  Pd31  1  0.51827000  0.49739000  0.04868000  1.0
  C  C32  1  0.41728000  0.25012000  0.29143000  1.0
  O  O33  1  0.56021000  0.24998000  0.31112000  1.0
