# generated using pymatgen
data_Ni12Sn4C
_symmetry_space_group_name_H-M   Pmm2
_cell_length_a   5.33450000
_cell_length_b   7.54412000
_cell_length_c   24.00090000
_cell_angle_alpha   90.00000000
_cell_angle_beta   90.00000000
_cell_angle_gamma   90.00000000
_symmetry_Int_Tables_number   25
_chemical_formula_structural   Ni12Sn4C
_chemical_formula_sum   'Ni12 Sn4 C1'
_cell_volume   965.89481506
_cell_formula_units_Z   1
loop_
 _symmetry_equiv_pos_site_id
 _symmetry_equiv_pos_as_xyz
  1  'x, y, z'
  2  '-x, -y, z'
  3  '-x, y, z'
  4  'x, -y, z'
loop_
 _atom_site_type_symbol
 _atom_site_label
 _atom_site_symmetry_multiplicity
 _atom_site_fract_x
 _atom_site_fract_y
 _atom_site_fract_z
 _atom_site_occupancy
  Ni  Ni0  4  0.22584000  0.19883000  0.91691000  1.0
  Ni  Ni1  4  0.25000000  0.24998000  0.02778000  1.0
  Ni  Ni2  1  0.00000000  0.00000000  0.97978000  1.0
  Ni  Ni3  1  0.00000000  0.50000000  0.96562000  1.0
  Ni  Ni4  1  0.50000000  0.00000000  0.08335000  1.0
  Ni  Ni5  1  0.50000000  0.50000000  0.08335000  1.0
  Sn  Sn6  1  0.00000000  0.00000000  0.08335000  1.0
  Sn  Sn7  1  0.00000000  0.50000000  0.08335000  1.0
  Sn  Sn8  1  0.50000000  0.00000000  0.97760000  1.0
  Sn  Sn9  1  0.50000000  0.50000000  0.95651000  1.0
  C  C10  1  0.00000000  0.00000000  0.90181000  1.0
