data_image0
_chemical_formula_structural       Li8In8Cu8Pt8CO
_chemical_formula_sum              "Li8 In8 Cu8 Pt8 C1 O1"
_cell_length_a       6.3347
_cell_length_b       8.95862
_cell_length_c       26.719
_cell_angle_alpha    90
_cell_angle_beta     90
_cell_angle_gamma    90

_space_group_name_H-M_alt    "P 1"
_space_group_IT_number       1

loop_
  _space_group_symop_operation_xyz
  'x, y, z'

loop_
  _atom_site_type_symbol
  _atom_site_label
  _atom_site_symmetry_multiplicity
  _atom_site_fract_x
  _atom_site_fract_y
  _atom_site_fract_z
  _atom_site_occupancy
  Li  Li1       1.0  0.75000  0.00000  0.95809  1.0000
  Li  Li2       1.0  0.75000  0.50000  0.95809  1.0000
  Li  Li3       1.0  0.25000  0.25000  0.87427  1.0000
  Li  Li4       1.0  0.25000  0.75000  0.87427  1.0000
  Li  Li5       1.0  0.67495  0.50001  0.14149  1.0000
  Li  Li6       1.0  0.72422  0.00000  0.13095  1.0000
  Li  Li7       1.0  0.23424  0.74068  0.04145  1.0000
  Li  Li8       1.0  0.23424  0.25931  0.04145  1.0000
  In  In1       1.0  0.00000  0.25000  0.95809  1.0000
  In  In2       1.0  0.00000  0.75000  0.95809  1.0000
  In  In3       1.0  0.50000  0.50000  0.87427  1.0000
  In  In4       1.0  0.50000  0.00000  0.87427  1.0000
  In  In5       1.0  0.99033  0.73978  0.13242  1.0000
  In  In6       1.0  0.99032  0.26023  0.13242  1.0000
  In  In7       1.0  0.48210  1.00000  0.04404  1.0000
  In  In8       1.0  0.51692  0.50000  0.04079  1.0000
  Cu  Cu1       1.0  0.00000  0.00000  0.87427  1.0000
  Cu  Cu2       1.0  0.00000  0.50000  0.87427  1.0000
  Cu  Cu3       1.0  0.50000  0.75000  0.95809  1.0000
  Cu  Cu4       1.0  0.50000  0.25000  0.95809  1.0000
  Cu  Cu5       1.0  0.98056  0.50000  0.03984  1.0000
  Cu  Cu6       1.0  0.01401  1.00000  0.04780  1.0000
  Cu  Cu7       1.0  0.47415  0.24891  0.11611  1.0000
  Cu  Cu8       1.0  0.47414  0.75109  0.11610  1.0000
  Pt  Pt1       1.0  0.25000  0.00000  0.95809  1.0000
  Pt  Pt2       1.0  0.25000  0.50000  0.95809  1.0000
  Pt  Pt3       1.0  0.75000  0.25000  0.87427  1.0000
  Pt  Pt4       1.0  0.75000  0.75000  0.87427  1.0000
  Pt  Pt5       1.0  0.24627  0.50000  0.11844  1.0000
  Pt  Pt6       1.0  0.23947  0.00001  0.13370  1.0000
  Pt  Pt7       1.0  0.75681  0.75921  0.04253  1.0000
  Pt  Pt8       1.0  0.75681  0.24078  0.04253  1.0000
  C   C1        1.0  0.28563  0.00001  0.20408  1.0000
  O   O1        1.0  0.31209  0.00001  0.24694  1.0000
