# generated using pymatgen
data_Li8In8Cu8Pt8CO
_symmetry_space_group_name_H-M   'P 1'
_cell_length_a   8.95862000
_cell_length_b   6.33470000
_cell_length_c   26.71900000
_cell_angle_alpha   90.00000000
_cell_angle_beta   90.00000000
_cell_angle_gamma   90.00000000
_symmetry_Int_Tables_number   1
_chemical_formula_structural   Li8In8Cu8Pt8CO
_chemical_formula_sum   'Li8 In8 Cu8 Pt8 C1 O1'
_cell_volume   1516.30779528
_cell_formula_units_Z   1
loop_
 _symmetry_equiv_pos_site_id
 _symmetry_equiv_pos_as_xyz
  1  'x, y, z'
loop_
 _atom_site_type_symbol
 _atom_site_label
 _atom_site_symmetry_multiplicity
 _atom_site_fract_x
 _atom_site_fract_y
 _atom_site_fract_z
 _atom_site_occupancy
  Li  Li0  1  0.00000000  0.75000000  0.04191000  1.0
  Li  Li1  1  0.50000000  0.75000000  0.04191000  1.0
  Li  Li2  1  0.24999000  0.25000000  0.12573000  1.0
  Li  Li3  1  0.75001000  0.25000000  0.12573000  1.0
  Li  Li4  1  0.50000000  0.67495000  0.85851000  1.0
  Li  Li5  1  0.00000000  0.72422000  0.86905000  1.0
  Li  Li6  1  0.74067000  0.23424000  0.95855000  1.0
  Li  Li7  1  0.25933000  0.23424000  0.95855000  1.0
  In  In8  1  0.24999000  1.00000000  0.04191000  1.0
  In  In9  1  0.75001000  1.00000000  0.04191000  1.0
  In  In10  1  0.50000000  0.50000000  0.12573000  1.0
  In  In11  1  0.00000000  0.50000000  0.12573000  1.0
  In  In12  1  0.73977000  0.99033000  0.86758000  1.0
  In  In13  1  0.26023000  0.99033000  0.86758000  1.0
  In  In14  1  0.00000000  0.48210000  0.95596000  1.0
  In  In15  1  0.50000000  0.51692000  0.95921000  1.0
  Cu  Cu16  1  0.00000000  0.00000000  0.12573000  1.0
  Cu  Cu17  1  0.50000000  0.00000000  0.12573000  1.0
  Cu  Cu18  1  0.74999000  0.50000000  0.04191000  1.0
  Cu  Cu19  1  0.25001000  0.50000000  0.04191000  1.0
  Cu  Cu20  1  0.50000000  0.98056000  0.96016000  1.0
  Cu  Cu21  1  0.00000000  0.01401000  0.95220000  1.0
  Cu  Cu22  1  0.24890000  0.47415000  0.88389000  1.0
  Cu  Cu23  1  0.75110000  0.47415000  0.88389000  1.0
  Pt  Pt24  1  0.00000000  0.25000000  0.04191000  1.0
  Pt  Pt25  1  0.50000000  0.25000000  0.04191000  1.0
  Pt  Pt26  1  0.24999000  0.75000000  0.12573000  1.0
  Pt  Pt27  1  0.75001000  0.75000000  0.12573000  1.0
  Pt  Pt28  1  0.50000000  0.24627000  0.88156000  1.0
  Pt  Pt29  1  0.00000000  0.23947000  0.86630000  1.0
  Pt  Pt30  1  0.75920000  0.75681000  0.95747000  1.0
  Pt  Pt31  1  0.24080000  0.75681000  0.95747000  1.0
  C  C32  1  0.00000000  0.28563000  0.79592000  1.0
  O  O33  1  0.00000000  0.31209000  0.75306000  1.0
