# generated using pymatgen
data_Li8In8Cu8Pt8CO
_symmetry_space_group_name_H-M   Pm
_cell_length_a   6.33470000
_cell_length_b   8.95862000
_cell_length_c   26.71900000
_cell_angle_alpha   90.00000000
_cell_angle_beta   90.00000000
_cell_angle_gamma   90.00000000
_symmetry_Int_Tables_number   6
_chemical_formula_structural   Li8In8Cu8Pt8CO
_chemical_formula_sum   'Li8 In8 Cu8 Pt8 C1 O1'
_cell_volume   1516.30779528
_cell_formula_units_Z   1
loop_
 _symmetry_equiv_pos_site_id
 _symmetry_equiv_pos_as_xyz
  1  'x, y, z'
  2  'x, -y, z'
loop_
 _atom_site_type_symbol
 _atom_site_label
 _atom_site_symmetry_multiplicity
 _atom_site_fract_x
 _atom_site_fract_y
 _atom_site_fract_z
 _atom_site_occupancy
  Li  Li0  2  0.23424000  0.25933000  0.04145000  1.0
  Li  Li1  2  0.25000000  0.24999000  0.87427000  1.0
  Li  Li2  1  0.67495000  0.50000000  0.14149000  1.0
  Li  Li3  1  0.72422000  0.00000000  0.13095000  1.0
  Li  Li4  1  0.75000000  0.00000000  0.95809000  1.0
  Li  Li5  1  0.75000000  0.50000000  0.95809000  1.0
  In  In6  2  -0.00000000  0.24999000  0.95809000  1.0
  In  In7  2  0.99033000  0.26023000  0.13242000  1.0
  In  In8  1  0.48210000  0.00000000  0.04404000  1.0
  In  In9  1  0.50000000  0.00000000  0.87427000  1.0
  In  In10  1  0.50000000  0.50000000  0.87427000  1.0
  In  In11  1  0.51692000  0.50000000  0.04079000  1.0
  Cu  Cu12  2  0.47415000  0.24890000  0.11611000  1.0
  Cu  Cu13  2  0.50000000  0.25001000  0.95809000  1.0
  Cu  Cu14  1  0.00000000  0.00000000  0.87427000  1.0
  Cu  Cu15  1  0.00000000  0.50000000  0.87427000  1.0
  Cu  Cu16  1  0.01401000  0.00000000  0.04780000  1.0
  Cu  Cu17  1  0.98056000  0.50000000  0.03984000  1.0
  Pt  Pt18  2  0.75000000  0.24999000  0.87427000  1.0
  Pt  Pt19  2  0.75681000  0.24080000  0.04253000  1.0
  Pt  Pt20  1  0.23947000  0.00000000  0.13370000  1.0
  Pt  Pt21  1  0.24627000  0.50000000  0.11844000  1.0
  Pt  Pt22  1  0.25000000  0.00000000  0.95809000  1.0
  Pt  Pt23  1  0.25000000  0.50000000  0.95809000  1.0
  C  C24  1  0.28563000  0.00000000  0.20408000  1.0
  O  O25  1  0.31209000  0.00000000  0.24694000  1.0
