# generated using pymatgen
data_Y8Ga8Sn8Pd8C
_symmetry_space_group_name_H-M   P1
_cell_length_a   8.54550000
_cell_length_b   8.88338000
_cell_length_c   26.61870000
_cell_angle_alpha   90.00000000
_cell_angle_beta   90.00000000
_cell_angle_gamma   90.00000000
_symmetry_Int_Tables_number   1
_chemical_formula_structural   Y8Ga8Sn8Pd8C
_chemical_formula_sum   'Y8 Ga8 Sn8 Pd8 C1'
_cell_volume   2020.70334449
_cell_formula_units_Z   1
loop_
 _symmetry_equiv_pos_site_id
 _symmetry_equiv_pos_as_xyz
  1  'x, y, z'
loop_
 _atom_site_type_symbol
 _atom_site_label
 _atom_site_symmetry_multiplicity
 _atom_site_fract_x
 _atom_site_fract_y
 _atom_site_fract_z
 _atom_site_occupancy
  Y  Y0  1  0.23973000  0.22921000  0.94961000  1.0
  Y  Y1  1  0.24641000  0.76956000  0.94974000  1.0
  Y  Y2  1  0.25000000  0.25000000  0.12432000  1.0
  Y  Y3  1  0.25000000  0.75000000  0.12432000  1.0
  Y  Y4  1  0.74385000  0.73336000  0.95406000  1.0
  Y  Y5  1  0.74902000  0.26772000  0.95403000  1.0
  Y  Y6  1  0.75000000  0.25000000  0.12432000  1.0
  Y  Y7  1  0.75000000  0.75000000  0.12432000  1.0
  Ga  Ga8  1  0.00000000  0.00000000  0.12432000  1.0
  Ga  Ga9  1  0.00000000  0.50000000  0.12432000  1.0
  Ga  Ga10  1  0.00855000  0.50322000  0.96595000  1.0
  Ga  Ga11  1  0.49118000  0.49803000  0.91511000  1.0
  Ga  Ga12  1  0.50000000  -0.00000000  0.12432000  1.0
  Ga  Ga13  1  0.50000000  0.50000000  0.12432000  1.0
  Ga  Ga14  1  0.50918000  0.00284000  0.96857000  1.0
  Ga  Ga15  1  0.97976000  0.99662000  0.96867000  1.0
  Sn  Sn16  1  0.18979000  0.50164000  0.86367000  1.0
  Sn  Sn17  1  0.25000000  -0.00000000  0.04144000  1.0
  Sn  Sn18  1  0.25000000  0.50000000  0.04144000  1.0
  Sn  Sn19  1  0.25970000  0.00205000  0.83806000  1.0
  Sn  Sn20  1  0.75000000  -0.00000000  0.04144000  1.0
  Sn  Sn21  1  0.75000000  0.50000000  0.04144000  1.0
  Sn  Sn22  1  0.78590000  0.00130000  0.86830000  1.0
  Sn  Sn23  1  0.83720000  0.50318000  0.86460000  1.0
  Pd  Pd24  1  0.00000000  0.25000000  0.04144000  1.0
  Pd  Pd25  1  0.00000000  0.75000000  0.04144000  1.0
  Pd  Pd26  1  0.00728000  0.22972000  0.87200000  1.0
  Pd  Pd27  1  0.01123000  0.77585000  0.87283000  1.0
  Pd  Pd28  1  0.50000000  0.25000000  0.04144000  1.0
  Pd  Pd29  1  0.50000000  0.75000000  0.04144000  1.0
  Pd  Pd30  1  0.50419000  0.17816000  0.88564000  1.0
  Pd  Pd31  1  0.50554000  0.83092000  0.88436000  1.0
  C  C32  1  0.10905000  0.00309000  0.90480000  1.0
