# generated using pymatgen
data_Sc4Ir12CO
_symmetry_space_group_name_H-M   'P 1'
_cell_length_a   7.92728000
_cell_length_b   5.60543000
_cell_length_c   24.20410000
_cell_angle_alpha   90.00000000
_cell_angle_beta   90.00000000
_cell_angle_gamma   90.00000000
_symmetry_Int_Tables_number   1
_chemical_formula_structural   Sc4Ir12CO
_chemical_formula_sum   'Sc4 Ir12 C1 O1'
_cell_volume   1075.52886459
_cell_formula_units_Z   1
loop_
 _symmetry_equiv_pos_site_id
 _symmetry_equiv_pos_as_xyz
  1  'x, y, z'
loop_
 _atom_site_type_symbol
 _atom_site_label
 _atom_site_symmetry_multiplicity
 _atom_site_fract_x
 _atom_site_fract_y
 _atom_site_fract_z
 _atom_site_occupancy
  Sc  Sc0  1  0.75000000  0.00000000  0.91315000  1.0
  Sc  Sc1  1  0.74830000  0.50373000  0.02788000  1.0
  Sc  Sc2  1  0.25000000  0.00000000  0.91315000  1.0
  Sc  Sc3  1  0.25170000  0.50373000  0.02788000  1.0
  Ir  Ir4  1  0.75000000  0.50000000  0.91315000  1.0
  Ir  Ir5  1  0.50000000  0.25000000  0.97105000  1.0
  Ir  Ir6  1  0.50000000  0.75000000  0.97105000  1.0
  Ir  Ir7  1  0.75012000  0.00463000  0.02693000  1.0
  Ir  Ir8  1  0.50000000  0.75116000  0.08465000  1.0
  Ir  Ir9  1  0.50000000  0.24769000  0.08045000  1.0
  Ir  Ir10  1  0.25000000  0.50000000  0.91315000  1.0
  Ir  Ir11  1  0.00000000  0.25000000  0.97105000  1.0
  Ir  Ir12  1  0.00000000  0.75000000  0.97105000  1.0
  Ir  Ir13  1  0.24988000  0.00463000  0.02693000  1.0
  Ir  Ir14  1  0.00000000  0.75639000  0.07992000  1.0
  Ir  Ir15  1  0.00000000  0.25424000  0.08022000  1.0
  C  C16  1  0.50000000  0.74400000  0.16180000  1.0
  O  O17  1  0.50000000  0.74574000  0.20976000  1.0
