# generated using pymatgen
data_Ta4Rh12C
_symmetry_space_group_name_H-M   Pm
_cell_length_a   5.51512000
_cell_length_b   7.79956000
_cell_length_c   24.13630000
_cell_angle_alpha   90.00000000
_cell_angle_beta   90.00000000
_cell_angle_gamma   90.00000000
_symmetry_Int_Tables_number   6
_chemical_formula_structural   Ta4Rh12C
_chemical_formula_sum   'Ta4 Rh12 C1'
_cell_volume   1038.23523826
_cell_formula_units_Z   1
loop_
 _symmetry_equiv_pos_site_id
 _symmetry_equiv_pos_as_xyz
  1  'x, y, z'
  2  'x, -y, z'
loop_
 _atom_site_type_symbol
 _atom_site_label
 _atom_site_symmetry_multiplicity
 _atom_site_fract_x
 _atom_site_fract_y
 _atom_site_fract_z
 _atom_site_occupancy
  Ta  Ta0  2  0.00590000  0.26630000  0.92306000  1.0
  Ta  Ta1  2  0.50000000  0.25000000  0.02856000  1.0
  Rh  Rh2  2  0.00000000  0.25000000  0.02856000  1.0
  Rh  Rh3  2  0.52063000  0.27609000  0.91599000  1.0
  Rh  Rh4  1  0.25000000  0.00000000  0.08569000  1.0
  Rh  Rh5  1  0.25000000  0.50000000  0.08569000  1.0
  Rh  Rh6  1  0.25288000  0.50000000  0.97440000  1.0
  Rh  Rh7  1  0.25825000  0.00000000  0.96260000  1.0
  Rh  Rh8  1  0.75000000  0.00000000  0.08569000  1.0
  Rh  Rh9  1  0.75000000  0.50000000  0.08569000  1.0
  Rh  Rh10  1  0.75479000  0.50000000  0.97798000  1.0
  Rh  Rh11  1  0.75964000  0.00000000  0.96210000  1.0
  C  C12  1  0.75384000  0.50000000  0.89544000  1.0
