# generated using pymatgen
data_Y4In4Sn4Pd4CO
_symmetry_space_group_name_H-M   'P 1'
_cell_length_a   9.06394000
_cell_length_b   6.32964000
_cell_length_c   24.74170000
_cell_angle_alpha   90.00000000
_cell_angle_beta   90.00000000
_cell_angle_gamma   90.00000000
_symmetry_Int_Tables_number   1
_chemical_formula_structural   Y4In4Sn4Pd4CO
_chemical_formula_sum   'Y4 In4 Sn4 Pd4 C1 O1'
_cell_volume   1419.46787698
_cell_formula_units_Z   1
loop_
 _symmetry_equiv_pos_site_id
 _symmetry_equiv_pos_as_xyz
  1  'x, y, z'
loop_
 _atom_site_type_symbol
 _atom_site_label
 _atom_site_symmetry_multiplicity
 _atom_site_fract_x
 _atom_site_fract_y
 _atom_site_fract_z
 _atom_site_occupancy
  Y  Y0  1  0.25003000  0.73082000  0.97319000  1.0
  Y  Y1  1  0.25000000  0.21396000  0.09582000  1.0
  Y  Y2  1  0.74997000  0.73082000  0.97319000  1.0
  Y  Y3  1  0.75000000  0.21396000  0.09582000  1.0
  In  In4  1  0.00000000  0.99148000  0.90347000  1.0
  In  In5  1  0.00000000  0.47597000  0.03194000  1.0
  In  In6  1  0.50000000  0.99999000  0.90434000  1.0
  In  In7  1  0.50000000  0.47597000  0.03194000  1.0
  Sn  Sn8  1  0.00000000  0.45367000  0.91005000  1.0
  Sn  Sn9  1  0.00000000  0.97597000  0.03194000  1.0
  Sn  Sn10  1  0.50000000  0.46168000  0.90953000  1.0
  Sn  Sn11  1  0.50000000  0.97597000  0.03194000  1.0
  Pd  Pd12  1  0.25011000  0.22806000  0.96990000  1.0
  Pd  Pd13  1  0.25000000  0.71396000  0.09582000  1.0
  Pd  Pd14  1  0.74989000  0.22806000  0.96990000  1.0
  Pd  Pd15  1  0.75000000  0.71396000  0.09582000  1.0
  C  C16  1  0.00000000  0.57640000  0.76086000  1.0
  O  O17  1  0.00000000  0.46510000  0.72485000  1.0
