# generated using pymatgen
data_Li4Hf4In4Pd4CO
_symmetry_space_group_name_H-M   'P 1'
_cell_length_a   6.51419000
_cell_length_b   6.51419000
_cell_length_c   24.88560000
_cell_angle_alpha   90.00000000
_cell_angle_beta   90.00000000
_cell_angle_gamma   90.00000000
_symmetry_Int_Tables_number   1
_chemical_formula_structural   Li4Hf4In4Pd4CO
_chemical_formula_sum   'Li4 Hf4 In4 Pd4 C1 O1'
_cell_volume   1056.01225750
_cell_formula_units_Z   1
loop_
 _symmetry_equiv_pos_site_id
 _symmetry_equiv_pos_as_xyz
  1  'x, y, z'
loop_
 _atom_site_type_symbol
 _atom_site_label
 _atom_site_symmetry_multiplicity
 _atom_site_fract_x
 _atom_site_fract_y
 _atom_site_fract_z
 _atom_site_occupancy
  Li  Li0  1  0.25000000  0.25000000  0.03272000  1
  Li  Li1  1  0.75000500  0.24999500  0.87538000  1
  Li  Li2  1  0.24996500  0.75003500  0.87570000  1
  Li  Li3  1  0.75000000  0.75000000  0.03272000  1
  Hf  Hf4  1  0.00000000  0.00000000  0.09816000  1
  Hf  Hf5  1  0.49808000  0.99808000  0.96438000  1
  Hf  Hf6  1  0.00192000  0.50192000  0.96438000  1
  Hf  Hf7  1  0.50000000  0.50000000  0.09816000  1
  In  In8  1  0.50000000  1.00000000  0.09816000  1
  In  In9  1  0.99956000  0.00044000  0.96373000  1
  In  In10  1  0.50044500  0.49955500  0.96373000  1
  In  In11  1  0.00000000  0.50000000  0.09816000  1
  Pd  Pd12  1  0.25000000  0.75000000  0.03272000  1
  Pd  Pd13  1  0.75001000  0.74999000  0.90610000  1
  Pd  Pd14  1  0.25001000  0.24999000  0.90610000  1
  Pd  Pd15  1  0.75000000  0.25000000  0.03272000  1
  C  C16  1  0.24995000  0.75005000  0.79229000  1
  O  O17  1  0.24998000  0.75002000  0.74650000  1
