# generated using pymatgen
data_Li4Hf4In4Pd4CO
_symmetry_space_group_name_H-M   Cm
_cell_length_a   9.21245585
_cell_length_b   9.21245585
_cell_length_c   24.88560000
_cell_angle_alpha   90.00000000
_cell_angle_beta   90.00000000
_cell_angle_gamma   90.00000000
_symmetry_Int_Tables_number   8
_chemical_formula_structural   Li4Hf4In4Pd4CO
_chemical_formula_sum   'Li8 Hf8 In8 Pd8 C2 O2'
_cell_volume   2112.02451500
_cell_formula_units_Z   2
loop_
 _symmetry_equiv_pos_site_id
 _symmetry_equiv_pos_as_xyz
  1  'x, y, z'
  2  'x, -y, z'
  3  'x+1/2, y+1/2, z'
  4  'x+1/2, -y+1/2, z'
loop_
 _atom_site_type_symbol
 _atom_site_label
 _atom_site_symmetry_multiplicity
 _atom_site_fract_x
 _atom_site_fract_y
 _atom_site_fract_z
 _atom_site_occupancy
  Li  Li0  4  -0.00000000  0.25000000  0.96728000  1.0
  Li  Li1  2  0.24996500  0.00000000  0.12430000  1.0
  Li  Li2  2  0.25000500  0.50000000  0.12462000  1.0
  Hf  Hf3  4  0.25000000  0.24808000  0.03562000  1.0
  Hf  Hf4  2  -0.00000000  0.50000000  0.90184000  1.0
  Hf  Hf5  2  0.00000000  0.00000000  0.90184000  1.0
  In  In6  4  0.25000000  0.25000000  0.90184000  1.0
  In  In7  2  0.00044500  0.50000000  0.03627000  1.0
  In  In8  2  0.49956000  0.50000000  0.03627000  1.0
  Pd  Pd9  4  0.00001000  0.25000000  0.09390000  1.0
  Pd  Pd10  2  0.25000000  0.50000000  0.96728000  1.0
  Pd  Pd11  2  0.25000000  0.00000000  0.96728000  1.0
  C  C12  2  0.24995000  0.00000000  0.20771000  1.0
  O  O13  2  0.24998000  0.00000000  0.25350000  1.0
