# generated using pymatgen
data_LiMgInGe
_symmetry_space_group_name_H-M   Pmm2
_cell_length_a   8.40992000
_cell_length_b   8.75068000
_cell_length_c   26.31390000
_cell_angle_alpha   90.00000000
_cell_angle_beta   90.00000000
_cell_angle_gamma   90.00000000
_symmetry_Int_Tables_number   25
_chemical_formula_structural   LiMgInGe
_chemical_formula_sum   'Li8 Mg8 In8 Ge8'
_cell_volume   1936.50617902
_cell_formula_units_Z   8
loop_
 _symmetry_equiv_pos_site_id
 _symmetry_equiv_pos_as_xyz
  1  'x, y, z'
  2  '-x, -y, z'
  3  '-x, y, z'
  4  'x, -y, z'
loop_
 _atom_site_type_symbol
 _atom_site_label
 _atom_site_symmetry_multiplicity
 _atom_site_fract_x
 _atom_site_fract_y
 _atom_site_fract_z
 _atom_site_occupancy
  Li  Li0  2  0.24998000  0.00000000  0.12986000  1.0
  Li  Li1  2  0.24998000  0.50000000  0.12988000  1.0
  Li  Li2  2  0.25000000  0.00000000  0.96001000  1.0
  Li  Li3  2  0.25000000  0.50000000  0.96001000  1.0
  Mg  Mg4  4  0.25000000  0.25000000  0.88003000  1.0
  Mg  Mg5  4  0.25004000  0.25001000  0.04210000  1.0
  In  In6  1  0.00000000  0.00000000  0.04735000  1.0
  In  In7  1  0.00000000  0.00000000  0.88003000  1.0
  In  In8  1  0.00000000  0.50000000  0.04741000  1.0
  In  In9  1  0.00000000  0.50000000  0.88003000  1.0
  In  In10  1  0.50000000  0.00000000  0.04737000  1.0
  In  In11  1  0.50000000  0.00000000  0.88003000  1.0
  In  In12  1  0.50000000  0.50000000  0.04742000  1.0
  In  In13  1  0.50000000  0.50000000  0.88003000  1.0
  Ge  Ge14  2  0.00000000  0.24994000  0.11991000  1.0
  Ge  Ge15  2  0.00000000  0.25000000  0.96001000  1.0
  Ge  Ge16  2  0.50000000  0.24996000  0.11992000  1.0
  Ge  Ge17  2  0.50000000  0.25000000  0.96001000  1.0
