# generated using pymatgen
data_LiInAgPd
_symmetry_space_group_name_H-M   'P 1'
_cell_length_a   6.52372000
_cell_length_b   4.61297000
_cell_length_c   26.91950000
_cell_angle_alpha   90.00000000
_cell_angle_beta   90.00000000
_cell_angle_gamma   90.00000000
_symmetry_Int_Tables_number   1
_chemical_formula_structural   LiInAgPd
_chemical_formula_sum   'Li4 In4 Ag4 Pd4'
_cell_volume   810.10802067
_cell_formula_units_Z   4
loop_
 _symmetry_equiv_pos_site_id
 _symmetry_equiv_pos_as_xyz
  1  'x, y, z'
loop_
 _atom_site_type_symbol
 _atom_site_label
 _atom_site_symmetry_multiplicity
 _atom_site_fract_x
 _atom_site_fract_y
 _atom_site_fract_z
 _atom_site_occupancy
  Li  Li0  1  0.75000000  0.00000000  0.95716000  1.0
  Li  Li1  1  0.25000000  0.50000000  0.87148000  1.0
  Li  Li2  1  0.75689000  0.00000000  0.12962000  1.0
  Li  Li3  1  0.25415000  0.50000000  0.04030000  1.0
  In  In4  1  0.25000000  0.00000000  0.95716000  1.0
  In  In5  1  0.75000000  0.50000000  0.87148000  1.0
  In  In6  1  0.23723000  0.00000000  0.14164000  1.0
  In  In7  1  0.74751000  0.50000000  0.04303000  1.0
  Ag  Ag8  1  1.00000000  0.00000000  0.87148000  1.0
  Ag  Ag9  1  0.50000000  0.50000000  0.95716000  1.0
  Ag  Ag10  1  0.00970000  0.00000000  0.04538000  1.0
  Ag  Ag11  1  0.48693000  0.50000000  0.12680000  1.0
  Pd  Pd12  1  1.00000000  0.50000000  0.95716000  1.0
  Pd  Pd13  1  0.50000000  0.00000000  0.87148000  1.0
  Pd  Pd14  1  0.01966000  0.50000000  0.12060000  1.0
  Pd  Pd15  1  0.49211000  0.00000000  0.04615000  1.0
