# generated using pymatgen
data_Sc4In4Cu4Pd4CO
_symmetry_space_group_name_H-M   'P 1'
_cell_length_a   6.53831000
_cell_length_b   6.53831000
_cell_length_c   24.90370000
_cell_angle_alpha   90.00000000
_cell_angle_beta   90.00000000
_cell_angle_gamma   90.00000000
_symmetry_Int_Tables_number   1
_chemical_formula_structural   Sc4In4Cu4Pd4CO
_chemical_formula_sum   'Sc4 In4 Cu4 Pd4 C1 O1'
_cell_volume   1064.62066478
_cell_formula_units_Z   1
loop_
 _symmetry_equiv_pos_site_id
 _symmetry_equiv_pos_as_xyz
  1  'x, y, z'
loop_
 _atom_site_type_symbol
 _atom_site_label
 _atom_site_symmetry_multiplicity
 _atom_site_fract_x
 _atom_site_fract_y
 _atom_site_fract_z
 _atom_site_occupancy
  Sc  Sc0  1  0.74998000  0.74998000  0.03282000  1
  Sc  Sc1  1  0.75000000  0.24995000  0.90292000  1
  Sc  Sc2  1  0.24995000  0.75000000  0.90292000  1
  Sc  Sc3  1  0.24998000  0.24998000  0.03282000  1
  In  In4  1  0.25000000  0.74996000  0.03282000  1
  In  In5  1  0.24999500  0.24999500  0.88896000  1
  In  In6  1  0.75000500  0.75000500  0.90617000  1
  In  In7  1  0.74996000  0.25000000  0.03282000  1
  Cu  Cu8  1  0.99998000  0.99998000  0.09845000  1
  Cu  Cu9  1  0.01391000  0.48600000  0.96304000  1
  Cu  Cu10  1  0.48600000  0.01391000  0.96304000  1
  Cu  Cu11  1  0.49998000  0.49998000  0.09845000  1
  Pd  Pd12  1  1.00000000  0.49996000  0.09845000  1
  Pd  Pd13  1  0.00942500  0.00942500  0.96401000  1
  Pd  Pd14  1  0.49056500  0.49056500  0.96401000  1
  Pd  Pd15  1  0.49996000  1.00000000  0.09845000  1
  C  C16  1  0.74988000  0.74988000  0.80982000  1
  O  O17  1  0.75001000  0.75001000  0.76356000  1
