# generated using pymatgen
data_Sc8Ga8Ni16CO
_symmetry_space_group_name_H-M   'P 1'
_cell_length_a   6.06833000
_cell_length_b   8.58191000
_cell_length_c   26.43640000
_cell_angle_alpha   90.00000000
_cell_angle_beta   90.00000000
_cell_angle_gamma   90.00000000
_symmetry_Int_Tables_number   1
_chemical_formula_structural   Sc8Ga8Ni16CO
_chemical_formula_sum   'Sc8 Ga8 Ni16 C1 O1'
_cell_volume   1376.75118861
_cell_formula_units_Z   1
loop_
 _symmetry_equiv_pos_site_id
 _symmetry_equiv_pos_as_xyz
  1  'x, y, z'
loop_
 _atom_site_type_symbol
 _atom_site_label
 _atom_site_symmetry_multiplicity
 _atom_site_fract_x
 _atom_site_fract_y
 _atom_site_fract_z
 _atom_site_occupancy
  Sc  Sc0  1  0.00000000  0.00000000  0.87827000  1.0
  Sc  Sc1  1  0.50000000  0.25000000  0.95942000  1.0
  Sc  Sc2  1  0.50000000  0.75000000  0.95942000  1.0
  Sc  Sc3  1  0.00000000  0.50000000  0.87827000  1.0
  Sc  Sc4  1  0.00024000  0.50117000  0.03885000  1.0
  Sc  Sc5  1  0.50070000  0.75021000  0.12691000  1.0
  Sc  Sc6  1  0.50084000  0.24993000  0.12611000  1.0
  Sc  Sc7  1  0.00017000  0.99869000  0.03891000  1.0
  Ga  Ga8  1  0.00000000  0.75000000  0.95942000  1.0
  Ga  Ga9  1  0.50000000  0.00000000  0.87827000  1.0
  Ga  Ga10  1  0.00000000  0.25000000  0.95942000  1.0
  Ga  Ga11  1  0.50000000  0.50000000  0.87827000  1.0
  Ga  Ga12  1  0.00087000  0.24993000  0.12215000  1.0
  Ga  Ga13  1  0.50008000  0.49934000  0.04416000  1.0
  Ga  Ga14  1  0.00078000  0.74959000  0.12237000  1.0
  Ga  Ga15  1  0.50000000  0.00068000  0.04421000  1.0
  Ni  Ni16  1  0.25000000  0.00000000  0.95942000  1.0
  Ni  Ni17  1  0.75000000  0.50000000  0.95942000  1.0
  Ni  Ni18  1  0.75000000  0.00000000  0.95942000  1.0
  Ni  Ni19  1  0.25000000  0.50000000  0.95942000  1.0
  Ni  Ni20  1  0.75000000  0.75000000  0.87827000  1.0
  Ni  Ni21  1  0.25000000  0.25000000  0.87827000  1.0
  Ni  Ni22  1  0.25000000  0.75000000  0.87827000  1.0
  Ni  Ni23  1  0.75000000  0.25000000  0.87827000  1.0
  Ni  Ni24  1  0.22388000  0.49976000  0.11735000  1.0
  Ni  Ni25  1  0.77694000  0.00025000  0.11727000  1.0
  Ni  Ni26  1  0.77677000  0.49971000  0.11728000  1.0
  Ni  Ni27  1  0.22371000  0.00016000  0.11737000  1.0
  Ni  Ni28  1  0.73859000  0.25020000  0.04327000  1.0
  Ni  Ni29  1  0.26366000  0.74974000  0.04359000  1.0
  Ni  Ni30  1  0.26154000  0.25017000  0.04318000  1.0
  Ni  Ni31  1  0.73661000  0.74977000  0.04353000  1.0
  C  C32  1  0.88486000  0.25002000  0.27380000  1.0
  O  O33  1  0.04812000  0.25001000  0.29468000  1.0
