# generated using pymatgen
data_Li16Ga8Rh8C
_symmetry_space_group_name_H-M   Pm
_cell_length_a   6.03399000
_cell_length_b   8.53335000
_cell_length_c   26.40000000
_cell_angle_alpha   90.00000000
_cell_angle_beta   90.00000000
_cell_angle_gamma   90.00000000
_symmetry_Int_Tables_number   6
_chemical_formula_structural   Li16Ga8Rh8C
_chemical_formula_sum   'Li16 Ga8 Rh8 C1'
_cell_volume   1359.33992216
_cell_formula_units_Z   1
loop_
 _symmetry_equiv_pos_site_id
 _symmetry_equiv_pos_as_xyz
  1  'x, y, z'
  2  'x, -y, z'
loop_
 _atom_site_type_symbol
 _atom_site_label
 _atom_site_symmetry_multiplicity
 _atom_site_fract_x
 _atom_site_fract_y
 _atom_site_fract_z
 _atom_site_occupancy
  Li  Li0  2  0.50000000  0.25000000  0.87879000  1.0
  Li  Li1  2  0.51598000  0.24763000  0.04009000  1.0
  Li  Li2  2  0.72378000  0.25114000  0.14942000  1.0
  Li  Li3  2  0.75000000  0.25000000  0.95960000  1.0
  Li  Li4  1  -0.00000000  0.50000000  0.95960000  1.0
  Li  Li5  1  0.00000000  0.00000000  0.95960000  1.0
  Li  Li6  1  0.02145000  0.00000000  0.12894000  1.0
  Li  Li7  1  0.23572000  0.00000000  0.03541000  1.0
  Li  Li8  1  0.25000000  0.00000000  0.87879000  1.0
  Li  Li9  1  0.25000000  0.50000000  0.87879000  1.0
  Li  Li10  1  0.25056000  0.50000000  0.03846000  1.0
  Li  Li11  1  0.99958000  0.50000000  0.12062000  1.0
  Ga  Ga12  2  0.25000000  0.25000000  0.95960000  1.0
  Ga  Ga13  2  0.27178000  0.25993000  0.11955000  1.0
  Ga  Ga14  1  0.75000000  0.00000000  0.87879000  1.0
  Ga  Ga15  1  0.75000000  0.50000000  0.87879000  1.0
  Ga  Ga16  1  0.76000000  0.50000000  0.03708000  1.0
  Ga  Ga17  1  0.76233000  0.00000000  0.03851000  1.0
  Rh  Rh18  2  0.00000000  0.25000000  0.87879000  1.0
  Rh  Rh19  2  0.99951000  0.25082000  0.04552000  1.0
  Rh  Rh20  1  0.49268000  0.00000000  0.11657000  1.0
  Rh  Rh21  1  0.50000000  0.00000000  0.95960000  1.0
  Rh  Rh22  1  0.50000000  0.50000000  0.95960000  1.0
  Rh  Rh23  1  0.51103000  0.50000000  0.11219000  1.0
  C  C24  1  0.70818000  0.00000000  0.16091000  1.0
