# generated using pymatgen
data_Li4Al4Ge4Pd4C
_symmetry_space_group_name_H-M   Pm
_cell_length_a   5.49423000
_cell_length_b   8.01128000
_cell_length_c   24.10550000
_cell_angle_alpha   90.00000000
_cell_angle_beta   90.00000000
_cell_angle_gamma   90.00000000
_symmetry_Int_Tables_number   6
_chemical_formula_structural   Li4Al4Ge4Pd4C
_chemical_formula_sum   'Li4 Al4 Ge4 Pd4 C1'
_cell_volume   1061.02322642
_cell_formula_units_Z   1
loop_
 _symmetry_equiv_pos_site_id
 _symmetry_equiv_pos_as_xyz
  1  'x, y, z'
  2  'x, -y, z'
loop_
 _atom_site_type_symbol
 _atom_site_label
 _atom_site_symmetry_multiplicity
 _atom_site_fract_x
 _atom_site_fract_y
 _atom_site_fract_z
 _atom_site_occupancy
  Li  Li0  2  0.13453000  0.23165000  0.09323000  1.0
  Li  Li1  2  0.72857000  0.25000000  0.97161000  1.0
  Al  Al2  1  -0.00000000  0.50000000  0.91484000  1.0
  Al  Al3  1  0.00000000  0.00000000  0.91484000  1.0
  Al  Al4  1  0.42428000  0.50000000  0.02883000  1.0
  Al  Al5  1  0.48044000  0.00000000  0.02716000  1.0
  Ge  Ge6  1  0.00367000  0.00000000  0.02075000  1.0
  Ge  Ge7  1  0.50000000  0.00000000  0.91484000  1.0
  Ge  Ge8  1  0.50000000  0.50000000  0.91484000  1.0
  Ge  Ge9  1  0.93473000  0.50000000  0.03300000  1.0
  Pd  Pd10  2  0.22857000  0.25000000  0.97161000  1.0
  Pd  Pd11  2  0.64198000  0.25966000  0.07884000  1.0
  C  C12  1  0.77353000  0.00000000  0.08295000  1.0
