# generated using pymatgen
data_Ga4Pt12CO
_symmetry_space_group_name_H-M   'P 1'
_cell_length_a   7.92728000
_cell_length_b   5.60543000
_cell_length_c   24.20410000
_cell_angle_alpha   90.00000000
_cell_angle_beta   90.00000000
_cell_angle_gamma   90.00000000
_symmetry_Int_Tables_number   1
_chemical_formula_structural   Ga4Pt12CO
_chemical_formula_sum   'Ga4 Pt12 C1 O1'
_cell_volume   1075.52886459
_cell_formula_units_Z   1
loop_
 _symmetry_equiv_pos_site_id
 _symmetry_equiv_pos_as_xyz
  1  'x, y, z'
loop_
 _atom_site_type_symbol
 _atom_site_label
 _atom_site_symmetry_multiplicity
 _atom_site_fract_x
 _atom_site_fract_y
 _atom_site_fract_z
 _atom_site_occupancy
  Ga  Ga0  1  0.75000000  0.00000000  0.91315000  1.0
  Ga  Ga1  1  0.75196000  0.48213000  0.03426000  1.0
  Ga  Ga2  1  0.25000000  0.00000000  0.91315000  1.0
  Ga  Ga3  1  0.24804000  0.48213000  0.03426000  1.0
  Pt  Pt4  1  0.75000000  0.50000000  0.91315000  1.0
  Pt  Pt5  1  0.50000000  0.25000000  0.97105000  1.0
  Pt  Pt6  1  0.50000000  0.75000000  0.97105000  1.0
  Pt  Pt7  1  0.75142000  0.98807000  0.03030000  1.0
  Pt  Pt8  1  0.50000000  0.73886000  0.08731000  1.0
  Pt  Pt9  1  0.50000000  0.24527000  0.08462000  1.0
  Pt  Pt10  1  0.25000000  0.50000000  0.91315000  1.0
  Pt  Pt11  1  0.00000000  0.25000000  0.97105000  1.0
  Pt  Pt12  1  0.00000000  0.75000000  0.97105000  1.0
  Pt  Pt13  1  0.24858000  0.98807000  0.03030000  1.0
  Pt  Pt14  1  0.00000000  0.70759000  0.08383000  1.0
  Pt  Pt15  1  0.00000000  0.21690000  0.08676000  1.0
  C  C16  1  0.50000000  0.72599000  0.16454000  1.0
  O  O17  1  0.50000000  0.72634000  0.21218000  1.0
