# generated using pymatgen
data_Ga4Fe12CO
_symmetry_space_group_name_H-M   Cmm2
_cell_length_a   8.21810815
_cell_length_b   8.21810815
_cell_length_c   24.35830000
_cell_angle_alpha   90.00000000
_cell_angle_beta   90.00000000
_cell_angle_gamma   90.00000000
_symmetry_Int_Tables_number   35
_chemical_formula_structural   Ga4Fe12CO
_chemical_formula_sum   'Ga8 Fe24 C2 O2'
_cell_volume   1645.09385193
_cell_formula_units_Z   2
loop_
 _symmetry_equiv_pos_site_id
 _symmetry_equiv_pos_as_xyz
  1  'x, y, z'
  2  '-x, -y, z'
  3  '-x, y, z'
  4  'x, -y, z'
  5  'x+1/2, y+1/2, z'
  6  '-x+1/2, -y+1/2, z'
  7  '-x+1/2, y+1/2, z'
  8  'x+1/2, -y+1/2, z'
loop_
 _atom_site_type_symbol
 _atom_site_label
 _atom_site_symmetry_multiplicity
 _atom_site_fract_x
 _atom_site_fract_y
 _atom_site_fract_z
 _atom_site_occupancy
  Ga  Ga0  4  0.00000000  0.25000000  0.91054000  1.0
  Ga  Ga1  4  0.25000000  0.00000000  0.02982000  1.0
  Fe  Fe2  4  0.00000000  0.25000000  0.02982000  1.0
  Fe  Fe3  4  0.25000000  0.00000000  0.91054000  1.0
  Fe  Fe4  4  0.25000000  0.25000000  0.08946000  1.0
  Fe  Fe5  4  0.25000000  0.25000000  0.97018000  1.0
  Fe  Fe6  2  0.00000000  0.00000000  0.08946000  1.0
  Fe  Fe7  2  0.00000000  0.00000000  0.97018000  1.0
  Fe  Fe8  2  0.00000000  0.50000000  0.08946000  1.0
  Fe  Fe9  2  0.00000000  0.50000000  0.97018000  1.0
  C  C10  2  0.00000000  0.50000000  0.16746000  1.0
  O  O11  2  0.00000000  0.50000000  0.21468000  1.0
