# generated using pymatgen
data_Li2ZnGe
_symmetry_space_group_name_H-M   Cmm2
_cell_length_a   8.75246874
_cell_length_b   8.75246874
_cell_length_c   24.64170000
_cell_angle_alpha   90.00000000
_cell_angle_beta   90.00000000
_cell_angle_gamma   90.00000000
_symmetry_Int_Tables_number   35
_chemical_formula_structural   Li2ZnGe
_chemical_formula_sum   'Li16 Zn8 Ge8'
_cell_volume   1887.69490168
_cell_formula_units_Z   8
loop_
 _symmetry_equiv_pos_site_id
 _symmetry_equiv_pos_as_xyz
  1  'x, y, z'
  2  '-x, -y, z'
  3  '-x, y, z'
  4  'x, -y, z'
  5  'x+1/2, y+1/2, z'
  6  '-x+1/2, -y+1/2, z'
  7  '-x+1/2, y+1/2, z'
  8  'x+1/2, -y+1/2, z'
loop_
 _atom_site_type_symbol
 _atom_site_label
 _atom_site_symmetry_multiplicity
 _atom_site_fract_x
 _atom_site_fract_y
 _atom_site_fract_z
 _atom_site_occupancy
  Li  Li0  4  0.00000000  0.25000500  0.90582000  1.0
  Li  Li1  4  0.24992000  0.50000000  0.03460000  1.0
  Li  Li2  4  0.25000000  0.25000000  0.96861000  1.0
  Li  Li3  2  0.00000000  0.00000000  0.11566000  1.0
  Li  Li4  2  0.00000000  0.50000000  0.11483000  1.0
  Zn  Zn5  4  0.00000000  0.25013500  0.03727000  1.0
  Zn  Zn6  4  0.25000000  0.00000000  0.90582000  1.0
  Ge  Ge7  4  0.25000000  0.25000000  0.09746000  1.0
  Ge  Ge8  2  0.00000000  0.00000000  0.96861000  1.0
  Ge  Ge9  2  0.00000000  0.50000000  0.96861000  1.0
