data_image0
_chemical_formula_structural       Zr8In8Au16CO
_chemical_formula_sum              "Zr8 In8 Au16 C1 O1"
_cell_length_a       6.87009
_cell_length_b       9.71577
_cell_length_c       27.2868
_cell_angle_alpha    90
_cell_angle_beta     90
_cell_angle_gamma    90

_space_group_name_H-M_alt    "P 1"
_space_group_IT_number       1

loop_
  _space_group_symop_operation_xyz
  'x, y, z'

loop_
  _atom_site_type_symbol
  _atom_site_label
  _atom_site_symmetry_multiplicity
  _atom_site_fract_x
  _atom_site_fract_y
  _atom_site_fract_z
  _atom_site_occupancy
  Zr  Zr1       1.0  0.00000  0.00000  0.86648  1.0000
  Zr  Zr2       1.0  0.50000  0.25000  0.95549  1.0000
  Zr  Zr3       1.0  0.50000  0.75000  0.95549  1.0000
  Zr  Zr4       1.0  0.00000  0.50000  0.86648  1.0000
  Zr  Zr5       1.0  0.99368  0.50000  0.04845  1.0000
  Zr  Zr6       1.0  0.48821  0.75835  0.12434  1.0000
  Zr  Zr7       1.0  0.48822  0.24165  0.12434  1.0000
  Zr  Zr8       1.0  0.03714  0.00000  0.05922  1.0000
  In  In1       1.0  0.00000  0.75000  0.95549  1.0000
  In  In2       1.0  0.50000  0.00000  0.86648  1.0000
  In  In3       1.0  0.00000  0.25000  0.95549  1.0000
  In  In4       1.0  0.50000  0.50000  0.86648  1.0000
  In  In5       1.0  0.98543  0.26389  0.14266  1.0000
  In  In6       1.0  0.51068  0.50000  0.04251  1.0000
  In  In7       1.0  0.98543  0.73612  0.14266  1.0000
  In  In8       1.0  0.50091  1.00000  0.04289  1.0000
  Au  Au1       1.0  0.25000  0.00000  0.95549  1.0000
  Au  Au2       1.0  0.75000  0.50000  0.95549  1.0000
  Au  Au3       1.0  0.75000  0.00000  0.95549  1.0000
  Au  Au4       1.0  0.25000  0.50000  0.95549  1.0000
  Au  Au5       1.0  0.75000  0.75000  0.86648  1.0000
  Au  Au6       1.0  0.25000  0.25000  0.86648  1.0000
  Au  Au7       1.0  0.25000  0.75000  0.86648  1.0000
  Au  Au8       1.0  0.75000  0.25000  0.86648  1.0000
  Au  Au9       1.0  0.26372  0.50000  0.13512  1.0000
  Au  Au10      1.0  0.73027  1.00000  0.13806  1.0000
  Au  Au11      1.0  0.70445  0.50000  0.13960  1.0000
  Au  Au12      1.0  0.21889  0.00000  0.15347  1.0000
  Au  Au13      1.0  0.76848  0.23924  0.04480  1.0000
  Au  Au14      1.0  0.24156  0.74012  0.04261  1.0000
  Au  Au15      1.0  0.24156  0.25988  0.04261  1.0000
  Au  Au16      1.0  0.76848  0.76076  0.04480  1.0000
  C   C1        1.0  0.27120  0.00000  0.23099  1.0000
  O   O1        1.0  0.24127  1.00000  0.27230  1.0000
