# generated using pymatgen
data_Li4Y4Sn4Pb4C
_symmetry_space_group_name_H-M   Pm
_cell_length_a   6.45119000
_cell_length_b   9.64462000
_cell_length_c   24.83120000
_cell_angle_alpha   90.00000000
_cell_angle_beta   90.00000000
_cell_angle_gamma   90.00000000
_symmetry_Int_Tables_number   6
_chemical_formula_structural   Li4Y4Sn4Pb4C
_chemical_formula_sum   'Li4 Y4 Sn4 Pb4 C1'
_cell_volume   1544.97928864
_cell_formula_units_Z   1
loop_
 _symmetry_equiv_pos_site_id
 _symmetry_equiv_pos_as_xyz
  1  'x, y, z'
  2  'x, -y, z'
loop_
 _atom_site_type_symbol
 _atom_site_label
 _atom_site_symmetry_multiplicity
 _atom_site_fract_x
 _atom_site_fract_y
 _atom_site_fract_z
 _atom_site_occupancy
  Li  Li0  1  0.00000000  0.00000000  0.90272000  1.0
  Li  Li1  1  0.00000000  0.50000000  0.90272000  1.0
  Li  Li2  1  0.42993000  0.00000000  0.02605000  1.0
  Li  Li3  1  0.46337000  0.50000000  0.03126000  1.0
  Y  Y4  2  0.20643000  0.22440000  0.10067000  1.0
  Y  Y5  2  0.73640000  0.25000000  0.96757000  1.0
  Sn  Sn6  2  0.23640000  0.25000000  0.96757000  1.0
  Sn  Sn7  2  0.70504000  0.27376000  0.10250000  1.0
  Pb  Pb8  1  0.50000000  0.00000000  0.90272000  1.0
  Pb  Pb9  1  0.50000000  0.50000000  0.90272000  1.0
  Pb  Pb10  1  0.88557000  0.00000000  0.04343000  1.0
  Pb  Pb11  1  0.95886000  0.50000000  0.04010000  1.0
  C  C12  1  0.20667000  0.00000000  0.08595000  1.0
