# generated using pymatgen
data_Ti8In8Au16CO
_symmetry_space_group_name_H-M   P1
_cell_length_a   6.72102000
_cell_length_b   9.50495000
_cell_length_c   27.12870000
_cell_angle_alpha   90.00000000
_cell_angle_beta   90.00000000
_cell_angle_gamma   90.00000000
_symmetry_Int_Tables_number   1
_chemical_formula_structural   Ti8In8Au16CO
_chemical_formula_sum   'Ti8 In8 Au16 C1 O1'
_cell_volume   1733.06163115
_cell_formula_units_Z   1
loop_
 _symmetry_equiv_pos_site_id
 _symmetry_equiv_pos_as_xyz
  1  'x, y, z'
loop_
 _atom_site_type_symbol
 _atom_site_label
 _atom_site_symmetry_multiplicity
 _atom_site_fract_x
 _atom_site_fract_y
 _atom_site_fract_z
 _atom_site_occupancy
  Ti  Ti0  1  0.00000000  0.00000000  0.86861000  1.0
  Ti  Ti1  1  0.00000000  0.50000000  0.86861000  1.0
  Ti  Ti2  1  0.02734000  0.99999000  0.05426000  1.0
  Ti  Ti3  1  0.49991000  0.75227000  0.12268000  1.0
  Ti  Ti4  1  0.49993000  0.24773000  0.12270000  1.0
  Ti  Ti5  1  0.50000000  0.25000000  0.95620000  1.0
  Ti  Ti6  1  0.50000000  0.75000000  0.95620000  1.0
  Ti  Ti7  1  0.99749000  0.50001000  0.04296000  1.0
  In  In8  1  0.00000000  0.25000000  0.95620000  1.0
  In  In9  1  0.00000000  0.75000000  0.95620000  1.0
  In  In10  1  0.49085000  0.00002000  0.04344000  1.0
  In  In11  1  0.50000000  0.00000000  0.86861000  1.0
  In  In12  1  0.50000000  0.50000000  0.86861000  1.0
  In  In13  1  0.51977000  0.49998000  0.04310000  1.0
  In  In14  1  0.97612000  0.73501000  0.14383000  1.0
  In  In15  1  0.97613000  0.26498000  0.14387000  1.0
  Au  Au16  1  0.22489000  0.00000000  0.14343000  1.0
  Au  Au17  1  0.24051000  0.25938000  0.04508000  1.0
  Au  Au18  1  0.24058000  0.74062000  0.04506000  1.0
  Au  Au19  1  0.25000000  0.00000000  0.95620000  1.0
  Au  Au20  1  0.25000000  0.25000000  0.86861000  1.0
  Au  Au21  1  0.25000000  0.50000000  0.95620000  1.0
  Au  Au22  1  0.25000000  0.75000000  0.86861000  1.0
  Au  Au23  1  0.25580000  0.49999000  0.12833000  1.0
  Au  Au24  1  0.69068000  0.50000000  0.14550000  1.0
  Au  Au25  1  0.72731000  0.99999000  0.13237000  1.0
  Au  Au26  1  0.75000000  0.00000000  0.95620000  1.0
  Au  Au27  1  0.75000000  0.25000000  0.86861000  1.0
  Au  Au28  1  0.75000000  0.50000000  0.95620000  1.0
  Au  Au29  1  0.75000000  0.75000000  0.86861000  1.0
  Au  Au30  1  0.77072000  0.75854000  0.04573000  1.0
  Au  Au31  1  0.77081000  0.24146000  0.04575000  1.0
  C  C32  1  0.28685000  0.00000000  0.22090000  1.0
  O  O33  1  0.24935000  0.00000000  0.26214000  1.0
