# generated using pymatgen
data_Li4Nb4Al4Pd4C
_symmetry_space_group_name_H-M   P2
_cell_length_a   6.26744000
_cell_length_b   24.70060000
_cell_length_c   6.26744000
_cell_angle_alpha   90.00000000
_cell_angle_beta   90.00000000
_cell_angle_gamma   90.00000000
_symmetry_Int_Tables_number   3
_chemical_formula_structural   Li4Nb4Al4Pd4C
_chemical_formula_sum   'Li4 Nb4 Al4 Pd4 C1'
_cell_volume   970.25943108
_cell_formula_units_Z   1
loop_
 _symmetry_equiv_pos_site_id
 _symmetry_equiv_pos_as_xyz
  1  'x, y, z'
  2  '-x, y, -z'
loop_
 _atom_site_type_symbol
 _atom_site_label
 _atom_site_symmetry_multiplicity
 _atom_site_fract_x
 _atom_site_fract_y
 _atom_site_fract_z
 _atom_site_occupancy
  Li  Li0  2  0.25000000  0.96828000  0.25000000  1.0
  Li  Li1  2  0.25901000  0.12252000  0.75750000  1.0
  Nb  Nb2  1  0.00000000  0.03080000  0.00000000  1.0
  Nb  Nb3  1  0.00000000  0.90485000  0.50000000  1.0
  Nb  Nb4  1  0.50000000  0.03075000  0.50000000  1.0
  Nb  Nb5  1  0.50000000  0.90485000  0.00000000  1.0
  Al  Al6  1  0.00000000  0.03811000  0.50000000  1.0
  Al  Al7  1  0.00000000  0.90485000  0.00000000  1.0
  Al  Al8  1  0.50000000  0.02417000  0.00000000  1.0
  Al  Al9  1  0.50000000  0.90485000  0.50000000  1.0
  Pd  Pd10  2  0.25000000  0.96828000  0.75000000  1.0
  Pd  Pd11  2  0.27840000  0.08631000  0.22167000  1.0
  C  C12  1  0.50000000  0.11320000  0.00000000  1.0
