# generated using pymatgen
data_Li4In4Cu4Sn4C
_symmetry_space_group_name_H-M   'P 1'
_cell_length_a   6.73938000
_cell_length_b   6.73938000
_cell_length_c   25.05450000
_cell_angle_alpha   90.00000000
_cell_angle_beta   90.00000000
_cell_angle_gamma   90.00000000
_symmetry_Int_Tables_number   1
_chemical_formula_structural   Li4In4Cu4Sn4C
_chemical_formula_sum   'Li4 In4 Cu4 Sn4 C1'
_cell_volume   1137.95641834
_cell_formula_units_Z   1
loop_
 _symmetry_equiv_pos_site_id
 _symmetry_equiv_pos_as_xyz
  1  'x, y, z'
loop_
 _atom_site_type_symbol
 _atom_site_label
 _atom_site_symmetry_multiplicity
 _atom_site_fract_x
 _atom_site_fract_y
 _atom_site_fract_z
 _atom_site_occupancy
  Li  Li0  1  0.96921000  0.53089000  0.88354000  1
  Li  Li1  1  0.00000500  0.00000500  0.03362000  1
  Li  Li2  1  0.50000500  0.50000500  0.03362000  1
  Li  Li3  1  0.53089000  0.96921000  0.88354000  1
  In  In4  1  0.24961000  0.75010000  0.96267000  1
  In  In5  1  0.25000500  0.25000500  0.10087000  1
  In  In6  1  0.75000500  0.75000500  0.10087000  1
  In  In7  1  0.75010000  0.24961000  0.96267000  1
  Cu  Cu8  1  0.95050500  0.95050500  0.90367000  1
  Cu  Cu9  1  0.00000000  0.50001000  0.03362000  1
  Cu  Cu10  1  0.50001000  1.00000000  0.03362000  1
  Cu  Cu11  1  0.54765500  0.54765500  0.90413000  1
  Sn  Sn12  1  0.75047500  0.75047500  0.97853000  1
  Sn  Sn13  1  0.75000000  0.25001000  0.10087000  1
  Sn  Sn14  1  0.25001000  0.75000000  0.10087000  1
  Sn  Sn15  1  0.24942500  0.24942500  0.95100000  1
  C  C16  1  0.74862000  0.74862000  0.88801000  1
