# generated using pymatgen
data_Hf16Rh16C
_symmetry_space_group_name_H-M   Pmm2
_cell_length_a   6.52860000
_cell_length_b   9.23283000
_cell_length_c   26.92460000
_cell_angle_alpha   90.00000000
_cell_angle_beta   90.00000000
_cell_angle_gamma   90.00000000
_symmetry_Int_Tables_number   25
_chemical_formula_structural   Hf16Rh16C
_chemical_formula_sum   'Hf16 Rh16 C1'
_cell_volume   1622.94633630
_cell_formula_units_Z   1
loop_
 _symmetry_equiv_pos_site_id
 _symmetry_equiv_pos_as_xyz
  1  'x, y, z'
  2  '-x, -y, z'
  3  '-x, y, z'
  4  'x, -y, z'
loop_
 _atom_site_type_symbol
 _atom_site_label
 _atom_site_symmetry_multiplicity
 _atom_site_fract_x
 _atom_site_fract_y
 _atom_site_fract_z
 _atom_site_occupancy
  Hf  Hf0  2  0.00000000  0.23943000  0.13297000  1.0
  Hf  Hf1  2  0.00000000  0.25000000  0.95714000  1.0
  Hf  Hf2  2  0.50000000  0.25000000  0.95714000  1.0
  Hf  Hf3  2  0.50000000  0.25345000  0.12945000  1.0
  Hf  Hf4  1  0.00000000  0.00000000  0.04594000  1.0
  Hf  Hf5  1  0.00000000  0.00000000  0.87141000  1.0
  Hf  Hf6  1  0.00000000  0.50000000  0.04551000  1.0
  Hf  Hf7  1  0.00000000  0.50000000  0.87141000  1.0
  Hf  Hf8  1  0.50000000  0.00000000  0.03965000  1.0
  Hf  Hf9  1  0.50000000  0.00000000  0.87141000  1.0
  Hf  Hf10  1  0.50000000  0.50000000  0.04419000  1.0
  Hf  Hf11  1  0.50000000  0.50000000  0.87141000  1.0
  Rh  Rh12  4  0.24732000  0.25011000  0.04378000  1.0
  Rh  Rh13  4  0.25000000  0.25000000  0.87141000  1.0
  Rh  Rh14  2  0.24605000  0.50000000  0.12234000  1.0
  Rh  Rh15  2  0.25000000  0.00000000  0.95714000  1.0
  Rh  Rh16  2  0.25000000  0.50000000  0.95714000  1.0
  Rh  Rh17  2  0.28907000  0.00000000  0.12090000  1.0
  C  C18  1  0.00000000  0.00000000  0.14299000  1.0
