# generated using pymatgen
data_Mn4Ni8Ge4CO
_symmetry_space_group_name_H-M   P4mm
_cell_length_a   5.84248000
_cell_length_b   5.84248000
_cell_length_c   24.38190000
_cell_angle_alpha   90.00000000
_cell_angle_beta   90.00000000
_cell_angle_gamma   90.00000000
_symmetry_Int_Tables_number   99
_chemical_formula_structural   Mn4Ni8Ge4CO
_chemical_formula_sum   'Mn4 Ni8 Ge4 C1 O1'
_cell_volume   832.26573447
_cell_formula_units_Z   1
loop_
 _symmetry_equiv_pos_site_id
 _symmetry_equiv_pos_as_xyz
  1  'x, y, z'
  2  '-y, x, z'
  3  '-x, -y, z'
  4  'y, -x, z'
  5  '-x, y, z'
  6  'y, x, z'
  7  'x, -y, z'
  8  '-y, -x, z'
loop_
 _atom_site_type_symbol
 _atom_site_label
 _atom_site_symmetry_multiplicity
 _atom_site_fract_x
 _atom_site_fract_y
 _atom_site_fract_z
 _atom_site_occupancy
  Mn  Mn0  2  0.00000000  0.50000000  0.08986000  1.0
  Mn  Mn1  1  0.00000000  0.00000000  0.97005000  1.0
  Mn  Mn2  1  0.50000000  0.50000000  0.97005000  1.0
  Ni  Ni3  4  0.25000000  0.25000000  0.02995000  1.0
  Ni  Ni4  4  0.25000000  0.75000000  0.91014000  1.0
  Ge  Ge5  2  0.00000000  0.50000000  0.97005000  1.0
  Ge  Ge6  1  0.00000000  0.00000000  0.08986000  1.0
  Ge  Ge7  1  0.50000000  0.50000000  0.08986000  1.0
  C  C8  1  0.00000000  0.00000000  0.16779000  1.0
  O  O9  1  0.00000000  0.00000000  0.21495000  1.0
