# generated using pymatgen
data_LiAu3
_symmetry_space_group_name_H-M   Pmm2
_cell_length_a   4.12150500
_cell_length_b   5.82869000
_cell_length_c   24.37150000
_cell_angle_alpha   90.00000000
_cell_angle_beta   90.00000000
_cell_angle_gamma   90.00000000
_symmetry_Int_Tables_number   25
_chemical_formula_structural   LiAu3
_chemical_formula_sum   'Li2 Au6'
_cell_volume   585.47593469
_cell_formula_units_Z   2
loop_
 _symmetry_equiv_pos_site_id
 _symmetry_equiv_pos_as_xyz
  1  'x, y, z'
  2  '-x, -y, z'
  3  '-x, y, z'
  4  'x, -y, z'
loop_
 _atom_site_type_symbol
 _atom_site_label
 _atom_site_symmetry_multiplicity
 _atom_site_fract_x
 _atom_site_fract_y
 _atom_site_fract_z
 _atom_site_occupancy
  Li  Li0  1  0.00000000  0.00000000  0.08525000  1.0
  Li  Li1  1  0.00000000  0.50000000  0.97011000  1.0
  Au  Au2  2  0.50000000  0.24084000  0.03638000  1.0
  Au  Au3  2  0.50000000  0.25000000  0.91032000  1.0
  Au  Au4  1  0.00000000  0.00000000  0.97011000  1.0
  Au  Au5  1  0.00000000  0.50000000  0.08308000  1.0
