# generated using pymatgen
data_LiBe
_symmetry_space_group_name_H-M   Pmm2
_cell_length_a   2.81153000
_cell_length_b   3.97610500
_cell_length_c   25.96420000
_cell_angle_alpha   90.00000000
_cell_angle_beta   90.00000000
_cell_angle_gamma   90.00000000
_symmetry_Int_Tables_number   25
_chemical_formula_structural   LiBe
_chemical_formula_sum   'Li4 Be4'
_cell_volume   290.25219476
_cell_formula_units_Z   4
loop_
 _symmetry_equiv_pos_site_id
 _symmetry_equiv_pos_as_xyz
  1  'x, y, z'
  2  '-x, -y, z'
  3  '-x, y, z'
  4  'x, -y, z'
loop_
 _atom_site_type_symbol
 _atom_site_label
 _atom_site_symmetry_multiplicity
 _atom_site_fract_x
 _atom_site_fract_y
 _atom_site_fract_z
 _atom_site_occupancy
  Li  Li0  1  0.00000000  0.00000000  0.03272000  1.0
  Li  Li1  1  0.00000000  0.00000000  0.88515000  1.0
  Li  Li2  1  0.00000000  0.50000000  0.13317750  1.0
  Li  Li3  1  0.00000000  0.50000000  0.96172000  1.0
  Be  Be4  1  0.50000000  0.00000000  0.10134250  1.0
  Be  Be5  1  0.50000000  0.00000000  0.96172000  1.0
  Be  Be6  1  0.50000000  0.50000000  0.05379500  1.0
  Be  Be7  1  0.50000000  0.50000000  0.88515000  1.0
