# generated using pymatgen
data_LiAlCuAg
_symmetry_space_group_name_H-M   'P 1'
_cell_length_a   6.15237000
_cell_length_b   4.35038000
_cell_length_c   26.52560000
_cell_angle_alpha   90.00000000
_cell_angle_beta   90.00000000
_cell_angle_gamma   90.00000000
_symmetry_Int_Tables_number   1
_chemical_formula_structural   LiAlCuAg
_chemical_formula_sum   'Li4 Al4 Cu4 Ag4'
_cell_volume   709.96159389
_cell_formula_units_Z   4
loop_
 _symmetry_equiv_pos_site_id
 _symmetry_equiv_pos_as_xyz
  1  'x, y, z'
loop_
 _atom_site_type_symbol
 _atom_site_label
 _atom_site_symmetry_multiplicity
 _atom_site_fract_x
 _atom_site_fract_y
 _atom_site_fract_z
 _atom_site_occupancy
  Li  Li0  1  0.25000000  0.00000000  0.95900000  1.0
  Li  Li1  1  0.75000000  0.50000000  0.87699000  1.0
  Li  Li2  1  0.24553000  0.00000000  0.13024000  1.0
  Li  Li3  1  0.74648500  0.50000000  0.03814000  1.0
  Al  Al4  1  0.75000000  0.00000000  0.95900000  1.0
  Al  Al5  1  0.25000000  0.50000000  0.87699000  1.0
  Al  Al6  1  0.76336000  0.00000000  0.12470000  1.0
  Al  Al7  1  0.25566000  0.50000000  0.04314000  1.0
  Cu  Cu8  1  0.00000000  0.50000000  0.95900000  1.0
  Cu  Cu9  1  0.50000000  0.00000000  0.87699000  1.0
  Cu  Cu10  1  0.98164000  0.50000000  0.11629000  1.0
  Cu  Cu11  1  0.49888500  0.00000000  0.04272000  1.0
  Ag  Ag12  1  0.00000000  0.00000000  0.87699000  1.0
  Ag  Ag13  1  0.50000000  0.50000000  0.95900000  1.0
  Ag  Ag14  1  0.00417000  0.00000000  0.04114000  1.0
  Ag  Ag15  1  0.51921000  0.50000000  0.12369000  1.0
