data_image0
_chemical_formula_structural       Li8Ge8Pd16CO
_chemical_formula_sum              "Li8 Ge8 Pd16 C1 O1"
_cell_length_a       6.13924
_cell_length_b       8.68219
_cell_length_c       26.5116
_cell_angle_alpha    90
_cell_angle_beta     90
_cell_angle_gamma    90

_space_group_name_H-M_alt    "P 1"
_space_group_IT_number       1

loop_
  _space_group_symop_operation_xyz
  'x, y, z'

loop_
  _atom_site_type_symbol
  _atom_site_label
  _atom_site_symmetry_multiplicity
  _atom_site_fract_x
  _atom_site_fract_y
  _atom_site_fract_z
  _atom_site_occupancy
  Li  Li1       1.0  0.00000  0.00000  0.87719  1.0000
  Li  Li2       1.0  0.50000  0.25000  0.95906  1.0000
  Li  Li3       1.0  0.50000  0.75000  0.95906  1.0000
  Li  Li4       1.0  0.00000  0.50000  0.87719  1.0000
  Li  Li5       1.0  0.99999  0.49905  0.03787  1.0000
  Li  Li6       1.0  0.50000  0.74999  0.13487  1.0000
  Li  Li7       1.0  0.49999  0.25000  0.13462  1.0000
  Li  Li8       1.0  1.00000  0.00095  0.03786  1.0000
  Ge  Ge1       1.0  0.00000  0.75000  0.95906  1.0000
  Ge  Ge2       1.0  0.50000  0.00000  0.87719  1.0000
  Ge  Ge3       1.0  0.00000  0.25000  0.95906  1.0000
  Ge  Ge4       1.0  0.50000  0.50000  0.87719  1.0000
  Ge  Ge5       1.0  0.99999  0.24999  0.12297  1.0000
  Ge  Ge6       1.0  0.49999  0.50153  0.04261  1.0000
  Ge  Ge7       1.0  1.00000  0.75000  0.12483  1.0000
  Ge  Ge8       1.0  0.49999  0.99846  0.04262  1.0000
  Pd  Pd1       1.0  0.25000  0.00000  0.95906  1.0000
  Pd  Pd2       1.0  0.75000  0.50000  0.95906  1.0000
  Pd  Pd3       1.0  0.75000  0.00000  0.95906  1.0000
  Pd  Pd4       1.0  0.25000  0.50000  0.95906  1.0000
  Pd  Pd5       1.0  0.75000  0.75000  0.87719  1.0000
  Pd  Pd6       1.0  0.25000  0.25000  0.87719  1.0000
  Pd  Pd7       1.0  0.25000  0.75000  0.87719  1.0000
  Pd  Pd8       1.0  0.75000  0.25000  0.87719  1.0000
  Pd  Pd9       1.0  0.23394  0.50046  0.11705  1.0000
  Pd  Pd10      1.0  0.76604  0.99953  0.11705  1.0000
  Pd  Pd11      1.0  0.76604  0.50045  0.11704  1.0000
  Pd  Pd12      1.0  0.23395  0.99953  0.11704  1.0000
  Pd  Pd13      1.0  0.74737  0.25000  0.04061  1.0000
  Pd  Pd14      1.0  0.24963  0.74999  0.04081  1.0000
  Pd  Pd15      1.0  0.25263  0.24999  0.04061  1.0000
  Pd  Pd16      1.0  0.75035  0.75000  0.04081  1.0000
  C   C1        1.0  0.00021  0.25010  0.27150  1.0000
  O   O1        1.0  0.99999  0.25002  0.31436  1.0000
