# generated using pymatgen
data_CoPt
_symmetry_space_group_name_H-M   Pmma
_cell_length_a   3.85350500
_cell_length_b   3.73801000
_cell_length_c   25.78030000
_cell_angle_alpha   90.00000000
_cell_angle_beta   90.00000000
_cell_angle_gamma   90.00000000
_symmetry_Int_Tables_number   51
_chemical_formula_structural   CoPt
_chemical_formula_sum   'Co4 Pt4'
_cell_volume   371.35079033
_cell_formula_units_Z   4
loop_
 _symmetry_equiv_pos_site_id
 _symmetry_equiv_pos_as_xyz
  1  'x, y, z'
  2  '-x, -y, -z'
  3  '-x+1/2, -y, z'
  4  'x+1/2, y, -z'
  5  'x+1/2, -y, -z'
  6  '-x+1/2, y, z'
  7  '-x, y, -z'
  8  'x, -y, z'
loop_
 _atom_site_type_symbol
 _atom_site_label
 _atom_site_symmetry_multiplicity
 _atom_site_fract_x
 _atom_site_fract_y
 _atom_site_fract_z
 _atom_site_occupancy
  Co  Co0  2  0.25000000  0.00000000  0.11211000  1.0
  Co  Co1  2  0.25000000  0.00000000  0.96263000  1.0
  Pt  Pt2  2  0.25000000  0.50000000  0.03737000  1.0
  Pt  Pt3  2  0.25000000  0.50000000  0.88789000  1.0
