# generated using pymatgen
data_Hf8Ga8Ni16CO
_symmetry_space_group_name_H-M   P1
_cell_length_a   6.08368000
_cell_length_b   8.60362000
_cell_length_c   26.45270000
_cell_angle_alpha   90.00000000
_cell_angle_beta   90.00000000
_cell_angle_gamma   90.00000000
_symmetry_Int_Tables_number   1
_chemical_formula_structural   Hf8Ga8Ni16CO
_chemical_formula_sum   'Hf8 Ga8 Ni16 C1 O1'
_cell_volume   1384.57851839
_cell_formula_units_Z   1
loop_
 _symmetry_equiv_pos_site_id
 _symmetry_equiv_pos_as_xyz
  1  'x, y, z'
loop_
 _atom_site_type_symbol
 _atom_site_label
 _atom_site_symmetry_multiplicity
 _atom_site_fract_x
 _atom_site_fract_y
 _atom_site_fract_z
 _atom_site_occupancy
  Hf  Hf0  1  0.00000000  0.00000000  0.87803000  1.0
  Hf  Hf1  1  0.00000000  0.50000000  0.87803000  1.0
  Hf  Hf2  1  0.00251000  0.99996000  0.04128000  1.0
  Hf  Hf3  1  0.49627000  0.24864000  0.12458000  1.0
  Hf  Hf4  1  0.49629000  0.75136000  0.12457000  1.0
  Hf  Hf5  1  0.50000000  0.25000000  0.95934000  1.0
  Hf  Hf6  1  0.50000000  0.75000000  0.95934000  1.0
  Hf  Hf7  1  0.99791000  0.50005000  0.03974000  1.0
  Ga  Ga8  1  0.00000000  0.25000000  0.95934000  1.0
  Ga  Ga9  1  0.00000000  0.75000000  0.95934000  1.0
  Ga  Ga10  1  0.49575000  0.00007000  0.04306000  1.0
  Ga  Ga11  1  0.49897000  0.49996000  0.04107000  1.0
  Ga  Ga12  1  0.50000000  0.00000000  0.87803000  1.0
  Ga  Ga13  1  0.50000000  0.50000000  0.87803000  1.0
  Ga  Ga14  1  0.99457000  0.25447000  0.12122000  1.0
  Ga  Ga15  1  0.99457000  0.74553000  0.12124000  1.0
  Ni  Ni16  1  0.22921000  0.00003000  0.13155000  1.0
  Ni  Ni17  1  0.24487000  0.49995000  0.11758000  1.0
  Ni  Ni18  1  0.25000000  0.00000000  0.95934000  1.0
  Ni  Ni19  1  0.25000000  0.25000000  0.87803000  1.0
  Ni  Ni20  1  0.25000000  0.50000000  0.95934000  1.0
  Ni  Ni21  1  0.25000000  0.75000000  0.87803000  1.0
  Ni  Ni22  1  0.26567000  0.25040000  0.04341000  1.0
  Ni  Ni23  1  0.26573000  0.74963000  0.04342000  1.0
  Ni  Ni24  1  0.73271000  0.75097000  0.04331000  1.0
  Ni  Ni25  1  0.73274000  0.24904000  0.04330000  1.0
  Ni  Ni26  1  0.74900000  0.49993000  0.11787000  1.0
  Ni  Ni27  1  0.75000000  0.00000000  0.95934000  1.0
  Ni  Ni28  1  0.75000000  0.25000000  0.87803000  1.0
  Ni  Ni29  1  0.75000000  0.50000000  0.95934000  1.0
  Ni  Ni30  1  0.75000000  0.75000000  0.87803000  1.0
  Ni  Ni31  1  0.76324000  0.00005000  0.11726000  1.0
  C  C32  1  0.31600000  0.00000000  0.19521000  1.0
  O  O33  1  0.35099000  0.99997000  0.23857000  1.0
