# generated using pymatgen
data_Li4Mg4Ag4Sn4C
_symmetry_space_group_name_H-M   Cm
_cell_length_a   9.55865533
_cell_length_b   9.55865533
_cell_length_c   25.06920000
_cell_angle_alpha   90.00000000
_cell_angle_beta   90.00000000
_cell_angle_gamma   90.00000000
_symmetry_Int_Tables_number   8
_chemical_formula_structural   Li4Mg4Ag4Sn4C
_chemical_formula_sum   'Li8 Mg8 Ag8 Sn8 C2'
_cell_volume   2290.51994911
_cell_formula_units_Z   2
loop_
 _symmetry_equiv_pos_site_id
 _symmetry_equiv_pos_as_xyz
  1  'x, y, z'
  2  'x, -y, z'
  3  'x+1/2, y+1/2, z'
  4  'x+1/2, -y+1/2, z'
loop_
 _atom_site_type_symbol
 _atom_site_label
 _atom_site_symmetry_multiplicity
 _atom_site_fract_x
 _atom_site_fract_y
 _atom_site_fract_z
 _atom_site_occupancy
  Li  Li0  4  0.49899000  0.24942000  0.03771000  1.0
  Li  Li1  2  0.25000000  0.00000000  0.89890000  1.0
  Li  Li2  2  0.25000000  0.50000000  0.89890000  1.0
  Mg  Mg3  4  0.00000000  0.25000000  0.89890000  1.0
  Mg  Mg4  2  0.24956000  0.50000000  0.04265000  1.0
  Mg  Mg5  2  0.25072000  0.00000000  0.03300000  1.0
  Ag  Ag6  4  0.25000000  0.25000000  0.96630000  1.0
  Ag  Ag7  2  0.00419000  0.00000000  0.10020000  1.0
  Ag  Ag8  2  0.49701500  0.00000000  0.10077000  1.0
  Sn  Sn9  4  0.25062000  0.22643000  0.13084000  1.0
  Sn  Sn10  2  0.00000000  0.00000000  0.96630000  1.0
  Sn  Sn11  2  0.00000000  0.50000000  0.96630000  1.0
  C  C12  2  0.25088000  0.00000000  0.12113000  1.0
