# generated using pymatgen
data_Hf8In8Ni16C
_symmetry_space_group_name_H-M   'P 1'
_cell_length_a   8.92302000
_cell_length_b   6.30953000
_cell_length_c   26.69230000
_cell_angle_alpha   90.00000000
_cell_angle_beta   90.00000000
_cell_angle_gamma   90.00000000
_symmetry_Int_Tables_number   1
_chemical_formula_structural   Hf8In8Ni16C
_chemical_formula_sum   'Hf8 In8 Ni16 C1'
_cell_volume   1502.77815508
_cell_formula_units_Z   1
loop_
 _symmetry_equiv_pos_site_id
 _symmetry_equiv_pos_as_xyz
  1  'x, y, z'
loop_
 _atom_site_type_symbol
 _atom_site_label
 _atom_site_symmetry_multiplicity
 _atom_site_fract_x
 _atom_site_fract_y
 _atom_site_fract_z
 _atom_site_occupancy
  Hf  Hf0  1  0.75002000  0.00000000  0.12536000  1.0
  Hf  Hf1  1  0.00000000  0.50000000  0.04179000  1.0
  Hf  Hf2  1  0.50000000  0.50000000  0.04179000  1.0
  Hf  Hf3  1  0.24998000  0.00000000  0.12536000  1.0
  Hf  Hf4  1  0.25464000  0.99001000  0.95831000  1.0
  Hf  Hf5  1  0.50000000  0.50607000  0.87751000  1.0
  Hf  Hf6  1  0.00000000  0.56108000  0.87664000  1.0
  Hf  Hf7  1  0.74536000  0.99001000  0.95831000  1.0
  In  In8  1  0.50000000  1.00000000  0.04179000  1.0
  In  In9  1  0.75002000  0.50000000  0.12536000  1.0
  In  In10  1  0.00000000  0.00000000  0.04179000  1.0
  In  In11  1  0.24998000  0.50000000  0.12536000  1.0
  In  In12  1  0.00000000  0.95152000  0.82061000  1.0
  In  In13  1  0.24339000  0.49014000  0.95726000  1.0
  In  In14  1  0.50000000  0.02058000  0.86755000  1.0
  In  In15  1  0.75661000  0.49014000  0.95726000  1.0
  Ni  Ni16  1  0.75002000  0.25000000  0.04179000  1.0
  Ni  Ni17  1  0.25002000  0.75000000  0.04179000  1.0
  Ni  Ni18  1  0.74998000  0.75000000  0.04179000  1.0
  Ni  Ni19  1  0.24998000  0.25000000  0.04179000  1.0
  Ni  Ni20  1  0.50000000  0.75000000  0.12536000  1.0
  Ni  Ni21  1  0.00000000  0.25000000  0.12536000  1.0
  Ni  Ni22  1  0.50000000  0.25000000  0.12536000  1.0
  Ni  Ni23  1  0.00000000  0.75000000  0.12536000  1.0
  Ni  Ni24  1  0.21522000  0.19903000  0.87870000  1.0
  Ni  Ni25  1  0.73923000  0.76156000  0.87780000  1.0
  Ni  Ni26  1  0.26077000  0.76156000  0.87780000  1.0
  Ni  Ni27  1  0.78478000  0.19903000  0.87870000  1.0
  Ni  Ni28  1  0.00000000  0.75492000  0.96060000  1.0
  Ni  Ni29  1  0.50000000  0.26576000  0.95776000  1.0
  Ni  Ni30  1  0.00000000  0.20910000  0.94712000  1.0
  Ni  Ni31  1  0.50000000  0.73580000  0.95602000  1.0
  C  C32  1  0.00000000  0.23347000  0.87269000  1.0
