# generated using pymatgen
data_Hf8In8Ni16C
_symmetry_space_group_name_H-M   Pm
_cell_length_a   6.30953000
_cell_length_b   8.92302000
_cell_length_c   26.69230000
_cell_angle_alpha   90.00000000
_cell_angle_beta   90.00000000
_cell_angle_gamma   90.00000000
_symmetry_Int_Tables_number   6
_chemical_formula_structural   Hf8In8Ni16C
_chemical_formula_sum   'Hf8 In8 Ni16 C1'
_cell_volume   1502.77815508
_cell_formula_units_Z   1
loop_
 _symmetry_equiv_pos_site_id
 _symmetry_equiv_pos_as_xyz
  1  'x, y, z'
  2  'x, -y, z'
loop_
 _atom_site_type_symbol
 _atom_site_label
 _atom_site_symmetry_multiplicity
 _atom_site_fract_x
 _atom_site_fract_y
 _atom_site_fract_z
 _atom_site_occupancy
  Hf  Hf0  2  0.00000000  0.24998000  0.87464000  1.0
  Hf  Hf1  2  0.99001000  0.25464000  0.04169000  1.0
  Hf  Hf2  1  0.50000000  0.00000000  0.95821000  1.0
  Hf  Hf3  1  0.50000000  0.50000000  0.95821000  1.0
  Hf  Hf4  1  0.50607000  0.50000000  0.12249000  1.0
  Hf  Hf5  1  0.56108000  0.00000000  0.12336000  1.0
  In  In6  2  0.49014000  0.24339000  0.04274000  1.0
  In  In7  2  0.50000000  0.24998000  0.87464000  1.0
  In  In8  1  -0.00000000  0.50000000  0.95821000  1.0
  In  In9  1  0.00000000  0.00000000  0.95821000  1.0
  In  In10  1  0.02058000  0.50000000  0.13245000  1.0
  In  In11  1  0.95152000  0.00000000  0.17939000  1.0
  Ni  Ni12  2  0.19903000  0.21522000  0.12130000  1.0
  Ni  Ni13  2  0.25000000  0.24998000  0.95821000  1.0
  Ni  Ni14  2  0.75000000  0.25002000  0.95821000  1.0
  Ni  Ni15  2  0.76156000  0.26077000  0.12220000  1.0
  Ni  Ni16  1  0.20910000  0.00000000  0.05288000  1.0
  Ni  Ni17  1  0.25000000  0.00000000  0.87464000  1.0
  Ni  Ni18  1  0.25000000  0.50000000  0.87464000  1.0
  Ni  Ni19  1  0.26576000  0.50000000  0.04224000  1.0
  Ni  Ni20  1  0.73580000  0.50000000  0.04398000  1.0
  Ni  Ni21  1  0.75000000  0.00000000  0.87464000  1.0
  Ni  Ni22  1  0.75000000  0.50000000  0.87464000  1.0
  Ni  Ni23  1  0.75492000  0.00000000  0.03940000  1.0
  C  C24  1  0.23347000  0.00000000  0.12731000  1.0
