# generated using pymatgen
data_Ca16Pd16CO
_symmetry_space_group_name_H-M   Pm
_cell_length_a   10.10960000
_cell_length_b   7.14855000
_cell_length_c   27.58220000
_cell_angle_alpha   90.00000000
_cell_angle_beta   90.00000000
_cell_angle_gamma   90.00000000
_symmetry_Int_Tables_number   6
_chemical_formula_structural   Ca16Pd16CO
_chemical_formula_sum   'Ca16 Pd16 C1 O1'
_cell_volume   1993.33748994
_cell_formula_units_Z   1
loop_
 _symmetry_equiv_pos_site_id
 _symmetry_equiv_pos_as_xyz
  1  'x, y, z'
  2  'x, -y, z'
loop_
 _atom_site_type_symbol
 _atom_site_label
 _atom_site_symmetry_multiplicity
 _atom_site_fract_x
 _atom_site_fract_y
 _atom_site_fract_z
 _atom_site_occupancy
  Ca  Ca0  1  0.00000000  0.00000000  0.86255000  1.0
  Ca  Ca1  1  0.00000000  0.50000000  0.86255000  1.0
  Ca  Ca2  1  0.24990000  0.50000000  0.13965000  1.0
  Ca  Ca3  1  0.24999000  0.00000000  0.13884000  1.0
  Ca  Ca4  1  0.25000000  0.00000000  0.95418000  1.0
  Ca  Ca5  1  0.25000000  0.50000000  0.95418000  1.0
  Ca  Ca6  1  0.50000000  0.00000000  0.86255000  1.0
  Ca  Ca7  1  0.50000000  0.50000000  0.86255000  1.0
  Ca  Ca8  1  0.50025000  0.00000000  0.04470000  1.0
  Ca  Ca9  1  0.50052000  0.50000000  0.04461000  1.0
  Ca  Ca10  1  0.74991000  0.00000000  0.13974000  1.0
  Ca  Ca11  1  0.75000000  0.00000000  0.95418000  1.0
  Ca  Ca12  1  0.75000000  0.50000000  0.95418000  1.0
  Ca  Ca13  1  0.75002000  0.50000000  0.13995000  1.0
  Ca  Ca14  1  0.99937000  0.50000000  0.04462000  1.0
  Ca  Ca15  1  0.99964000  0.00000000  0.04469000  1.0
  Pd  Pd16  2  0.00000000  0.25000000  0.95418000  1.0
  Pd  Pd17  2  0.24992000  0.25340000  0.04930000  1.0
  Pd  Pd18  2  0.25000000  0.25000000  0.86255000  1.0
  Pd  Pd19  2  0.50000000  0.25000000  0.95418000  1.0
  Pd  Pd20  2  0.50180000  0.25235000  0.12913000  1.0
  Pd  Pd21  2  0.74994000  0.24895000  0.05048000  1.0
  Pd  Pd22  2  0.75000000  0.25000000  0.86255000  1.0
  Pd  Pd23  2  0.99819000  0.25215000  0.12913000  1.0
  C  C24  1  0.25158000  0.00000000  0.23569000  1.0
  O  O25  1  0.25197000  0.00000000  0.27710000  1.0
