# generated using pymatgen
data_Li16Ga8Ir8C
_symmetry_space_group_name_H-M   P1
_cell_length_a   5.92875000
_cell_length_b   8.38451000
_cell_length_c   26.28840000
_cell_angle_alpha   90.00000000
_cell_angle_beta   90.00000000
_cell_angle_gamma   90.00000000
_symmetry_Int_Tables_number   1
_chemical_formula_structural   Li16Ga8Ir8C
_chemical_formula_sum   'Li16 Ga8 Ir8 C1'
_cell_volume   1306.78752223
_cell_formula_units_Z   1
loop_
 _symmetry_equiv_pos_site_id
 _symmetry_equiv_pos_as_xyz
  1  'x, y, z'
loop_
 _atom_site_type_symbol
 _atom_site_label
 _atom_site_symmetry_multiplicity
 _atom_site_fract_x
 _atom_site_fract_y
 _atom_site_fract_z
 _atom_site_occupancy
  Li  Li0  1  0.24266000  0.50099000  0.14411000  1.0
  Li  Li1  1  0.24971000  0.25381000  0.03673000  1.0
  Li  Li2  1  0.24993000  0.74599000  0.03719000  1.0
  Li  Li3  1  0.25000000  0.00000000  0.96013000  1.0
  Li  Li4  1  0.25000000  0.25000000  0.88040000  1.0
  Li  Li5  1  0.25000000  0.50000000  0.96013000  1.0
  Li  Li6  1  0.25000000  0.75000000  0.88040000  1.0
  Li  Li7  1  0.28424000  0.99919000  0.16582000  1.0
  Li  Li8  1  0.71571000  0.00081000  0.16588000  1.0
  Li  Li9  1  0.75000000  0.00000000  0.96013000  1.0
  Li  Li10  1  0.75000000  0.25000000  0.88040000  1.0
  Li  Li11  1  0.75000000  0.50000000  0.96013000  1.0
  Li  Li12  1  0.75000000  0.75000000  0.88040000  1.0
  Li  Li13  1  0.75009000  0.25361000  0.03713000  1.0
  Li  Li14  1  0.75028000  0.74665000  0.03666000  1.0
  Li  Li15  1  0.75729000  0.49902000  0.14418000  1.0
  Ga  Ga16  1  0.00000000  0.00000000  0.88040000  1.0
  Ga  Ga17  1  0.00000000  0.50000000  0.88040000  1.0
  Ga  Ga18  1  0.00056000  0.00001000  0.03676000  1.0
  Ga  Ga19  1  0.49727000  0.24020000  0.11532000  1.0
  Ga  Ga20  1  0.50000000  0.25000000  0.96013000  1.0
  Ga  Ga21  1  0.50000000  0.75000000  0.96013000  1.0
  Ga  Ga22  1  0.50319000  0.75981000  0.11532000  1.0
  Ga  Ga23  1  0.99939000  0.50000000  0.05433000  1.0
  Ir  Ir24  1  0.00000000  0.25000000  0.96013000  1.0
  Ir  Ir25  1  0.00000000  0.75000000  0.96013000  1.0
  Ir  Ir26  1  0.00227000  0.21831000  0.11594000  1.0
  Ir  Ir27  1  0.49955000  0.00000000  0.05080000  1.0
  Ir  Ir28  1  0.50000000  0.00000000  0.88040000  1.0
  Ir  Ir29  1  0.50000000  0.50000000  0.88040000  1.0
  Ir  Ir30  1  0.50050000  0.50001000  0.05924000  1.0
  Ir  Ir31  1  0.99727000  0.78171000  0.11594000  1.0
  C  C32  1  0.99984000  0.00001000  0.12668000  1.0
