# generated using pymatgen
data_LiMgAgPd
_symmetry_space_group_name_H-M   Pm
_cell_length_a   6.38329000
_cell_length_b   4.51367000
_cell_length_c   26.77050000
_cell_angle_alpha   90.00000000
_cell_angle_beta   90.00000000
_cell_angle_gamma   90.00000000
_symmetry_Int_Tables_number   6
_chemical_formula_structural   LiMgAgPd
_chemical_formula_sum   'Li4 Mg4 Ag4 Pd4'
_cell_volume   771.31337469
_cell_formula_units_Z   4
loop_
 _symmetry_equiv_pos_site_id
 _symmetry_equiv_pos_as_xyz
  1  'x, y, z'
  2  'x, -y, z'
loop_
 _atom_site_type_symbol
 _atom_site_label
 _atom_site_symmetry_multiplicity
 _atom_site_fract_x
 _atom_site_fract_y
 _atom_site_fract_z
 _atom_site_occupancy
  Li  Li0  1  0.23984000  0.00000000  0.86811000  1.0
  Li  Li1  1  0.25000000  0.00000000  0.04215000  1.0
  Li  Li2  1  0.74850500  0.50000000  0.95746000  1.0
  Li  Li3  1  0.75000000  0.50000000  0.12645000  1.0
  Mg  Mg4  1  0.25000000  0.50000000  0.12645000  1.0
  Mg  Mg5  1  0.25326000  0.50000000  0.95824000  1.0
  Mg  Mg6  1  0.75000000  0.00000000  0.04215000  1.0
  Mg  Mg7  1  0.76036000  0.00000000  0.86873000  1.0
  Ag  Ag8  1  -0.00000000  0.00000000  0.12645000  1.0
  Ag  Ag9  1  0.49810000  0.50000000  0.87325500  1.0
  Ag  Ag10  1  0.50000000  0.50000000  0.04215000  1.0
  Ag  Ag11  1  0.99971500  0.00000000  0.95725000  1.0
  Pd  Pd12  1  -0.00000000  0.50000000  0.04215000  1.0
  Pd  Pd13  1  0.50000000  0.00000000  0.12645000  1.0
  Pd  Pd14  1  0.50245000  0.00000000  0.95528000  1.0
  Pd  Pd15  1  0.99718000  0.50000000  0.87912000  1.0
