# generated using pymatgen
data_YInPdAu
_symmetry_space_group_name_H-M   Pm
_cell_length_a   6.93157000
_cell_length_b   4.90136000
_cell_length_c   27.35200000
_cell_angle_alpha   90.00000000
_cell_angle_beta   90.00000000
_cell_angle_gamma   90.00000000
_symmetry_Int_Tables_number   6
_chemical_formula_structural   YInPdAu
_chemical_formula_sum   'Y4 In4 Pd4 Au4'
_cell_volume   929.26012847
_cell_formula_units_Z   4
loop_
 _symmetry_equiv_pos_site_id
 _symmetry_equiv_pos_as_xyz
  1  'x, y, z'
  2  'x, -y, z'
loop_
 _atom_site_type_symbol
 _atom_site_label
 _atom_site_symmetry_multiplicity
 _atom_site_fract_x
 _atom_site_fract_y
 _atom_site_fract_z
 _atom_site_occupancy
  Y  Y0  1  0.25000000  0.00000000  0.04480000  1.0
  Y  Y1  1  0.25596500  0.00000000  0.86689000  1.0
  Y  Y2  1  0.74341500  0.50000000  0.95203000  1.0
  Y  Y3  1  0.75000000  0.50000000  0.13440000  1.0
  In  In4  1  0.24852000  0.50000000  0.95412000  1.0
  In  In5  1  0.25000000  0.50000000  0.13440000  1.0
  In  In6  1  0.75000000  0.00000000  0.04480000  1.0
  In  In7  1  0.76169000  0.00000000  0.85996000  1.0
  Pd  Pd8  1  0.00000000  0.50000000  0.04480000  1.0
  Pd  Pd9  1  0.49429000  0.00000000  0.95440000  1.0
  Pd  Pd10  1  0.50000000  0.00000000  0.13440000  1.0
  Pd  Pd11  1  0.99861000  0.50000000  0.86964000  1.0
  Au  Au12  1  0.00000000  0.00000000  0.13440000  1.0
  Au  Au13  1  0.50000000  0.50000000  0.04480000  1.0
  Au  Au14  1  0.51136500  0.50000000  0.85812000  1.0
  Au  Au15  1  0.99675000  0.00000000  0.95449000  1.0
