# generated using pymatgen
data_YAlInPd
_symmetry_space_group_name_H-M   Pm
_cell_length_a   6.39385000
_cell_length_b   4.08087000
_cell_length_c   24.79180000
_cell_angle_alpha   90.00000000
_cell_angle_beta   90.00000000
_cell_angle_gamma   90.00000000
_symmetry_Int_Tables_number   6
_chemical_formula_structural   YAlInPd
_chemical_formula_sum   'Y2 Al2 In2 Pd2'
_cell_volume   646.87931385
_cell_formula_units_Z   2
loop_
 _symmetry_equiv_pos_site_id
 _symmetry_equiv_pos_as_xyz
  1  'x, y, z'
  2  'x, -y, z'
loop_
 _atom_site_type_symbol
 _atom_site_label
 _atom_site_symmetry_multiplicity
 _atom_site_fract_x
 _atom_site_fract_y
 _atom_site_fract_z
 _atom_site_occupancy
  Y  Y0  1  0.22082000  0.50000000  0.90336000  1.0
  Y  Y1  1  0.74027000  0.50000000  0.03221000  1.0
  Al  Al2  1  0.00000000  0.00000000  0.09664000  1.0
  Al  Al3  1  0.48054000  0.00000000  0.96779000  1.0
  In  In4  1  0.24027000  0.50000000  0.03221000  1.0
  In  In5  1  0.72082000  0.50000000  0.90336000  1.0
  Pd  Pd6  1  0.50000000  0.00000000  0.09664000  1.0
  Pd  Pd7  1  0.98054000  0.00000000  0.96779000  1.0
