# generated using pymatgen
data_MnZn
_symmetry_space_group_name_H-M   Pmm2
_cell_length_a   6.05499000
_cell_length_b   8.56306000
_cell_length_c   26.42230000
_cell_angle_alpha   90.00000000
_cell_angle_beta   90.00000000
_cell_angle_gamma   90.00000000
_symmetry_Int_Tables_number   25
_chemical_formula_structural   MnZn
_chemical_formula_sum   'Mn16 Zn16'
_cell_volume   1369.97624458
_cell_formula_units_Z   16
loop_
 _symmetry_equiv_pos_site_id
 _symmetry_equiv_pos_as_xyz
  1  'x, y, z'
  2  '-x, -y, z'
  3  '-x, y, z'
  4  'x, -y, z'
loop_
 _atom_site_type_symbol
 _atom_site_label
 _atom_site_symmetry_multiplicity
 _atom_site_fract_x
 _atom_site_fract_y
 _atom_site_fract_z
 _atom_site_occupancy
  Mn  Mn0  2  0.00000000  0.24999000  0.12352000  1.0
  Mn  Mn1  2  0.00000000  0.25000000  0.95949000  1.0
  Mn  Mn2  2  0.50000000  0.24999000  0.12359000  1.0
  Mn  Mn3  2  0.50000000  0.25000000  0.95949000  1.0
  Mn  Mn4  1  0.00000000  0.00000000  0.04070000  1.0
  Mn  Mn5  1  0.00000000  0.00000000  0.87847000  1.0
  Mn  Mn6  1  0.00000000  0.50000000  0.04071000  1.0
  Mn  Mn7  1  0.00000000  0.50000000  0.87847000  1.0
  Mn  Mn8  1  0.50000000  0.00000000  0.04062000  1.0
  Mn  Mn9  1  0.50000000  0.00000000  0.87847000  1.0
  Mn  Mn10  1  0.50000000  0.50000000  0.04062000  1.0
  Mn  Mn11  1  0.50000000  0.50000000  0.87847000  1.0
  Zn  Zn12  4  0.25000000  0.25000000  0.87847000  1.0
  Zn  Zn13  4  0.25018000  0.24994000  0.04062000  1.0
  Zn  Zn14  2  0.25000000  0.00000000  0.95949000  1.0
  Zn  Zn15  2  0.25000000  0.50000000  0.95949000  1.0
  Zn  Zn16  2  0.25047000  0.50000000  0.12531000  1.0
  Zn  Zn17  2  0.25048000  0.00000000  0.12528000  1.0
