data_image0
_chemical_formula_structural       Ti4Ni8Sb4CO
_chemical_formula_sum              "Ti4 Ni8 Sb4 C1 O1"
_cell_length_a       6.14888
_cell_length_b       6.14888
_cell_length_c       24.6117
_cell_angle_alpha    90
_cell_angle_beta     90
_cell_angle_gamma    90

_space_group_name_H-M_alt    "P 1"
_space_group_IT_number       1

loop_
  _space_group_symop_operation_xyz
  'x, y, z'

loop_
  _atom_site_type_symbol
  _atom_site_label
  _atom_site_symmetry_multiplicity
  _atom_site_fract_x
  _atom_site_fract_y
  _atom_site_fract_z
  _atom_site_occupancy
  Ti  Ti1       1.0  0.00002  0.00002  0.08819  1.0000
  Ti  Ti2       1.0  0.50003  0.49999  0.08830  1.0000
  Ti  Ti3       1.0  0.50000  0.00000  0.96877  1.0000
  Ti  Ti4       1.0  0.00000  0.50000  0.96877  1.0000
  Ni  Ni1       1.0  0.27283  0.22739  0.03559  1.0000
  Ni  Ni2       1.0  0.75000  0.75000  0.90631  1.0000
  Ni  Ni3       1.0  0.72706  0.22736  0.03559  1.0000
  Ni  Ni4       1.0  0.25000  0.75000  0.90631  1.0000
  Ni  Ni5       1.0  0.72720  0.77261  0.03562  1.0000
  Ni  Ni6       1.0  0.25000  0.25000  0.90631  1.0000
  Ni  Ni7       1.0  0.27295  0.77274  0.03561  1.0000
  Ni  Ni8       1.0  0.75000  0.25000  0.90631  1.0000
  Sb  Sb1       1.0  0.00000  0.00000  0.96877  1.0000
  Sb  Sb2       1.0  0.50003  0.00001  0.11237  1.0000
  Sb  Sb3       1.0  0.00003  0.50000  0.09214  1.0000
  Sb  Sb4       1.0  0.50000  0.50000  0.96877  1.0000
  C   C1        1.0  0.00006  0.50001  0.25809  1.0000
  O   O1        1.0  0.99995  0.49997  0.30420  1.0000
