# generated using pymatgen
data_Ti4Ni8Sb4CO
_symmetry_space_group_name_H-M   P1
_cell_length_a   6.14888000
_cell_length_b   6.14888000
_cell_length_c   24.61170000
_cell_angle_alpha   90.00000000
_cell_angle_beta   90.00000000
_cell_angle_gamma   90.00000000
_symmetry_Int_Tables_number   1
_chemical_formula_structural   Ti4Ni8Sb4CO
_chemical_formula_sum   'Ti4 Ni8 Sb4 C1 O1'
_cell_volume   930.53700334
_cell_formula_units_Z   1
loop_
 _symmetry_equiv_pos_site_id
 _symmetry_equiv_pos_as_xyz
  1  'x, y, z'
loop_
 _atom_site_type_symbol
 _atom_site_label
 _atom_site_symmetry_multiplicity
 _atom_site_fract_x
 _atom_site_fract_y
 _atom_site_fract_z
 _atom_site_occupancy
  Ti  Ti0  1  0.00000000  0.50000000  0.96877000  1.0
  Ti  Ti1  1  0.49996000  0.49994000  0.08787000  1.0
  Ti  Ti2  1  0.50000000  0.00000000  0.96877000  1.0
  Ti  Ti3  1  0.99995000  0.00005000  0.08806000  1.0
  Ni  Ni4  1  0.25000000  0.25000000  0.90631000  1.0
  Ni  Ni5  1  0.25000000  0.75000000  0.90631000  1.0
  Ni  Ni6  1  0.27005000  0.22916000  0.03522000  1.0
  Ni  Ni7  1  0.27032000  0.77102000  0.03520000  1.0
  Ni  Ni8  1  0.72969000  0.22909000  0.03517000  1.0
  Ni  Ni9  1  0.72984000  0.77083000  0.03524000  1.0
  Ni  Ni10  1  0.75000000  0.25000000  0.90631000  1.0
  Ni  Ni11  1  0.75000000  0.75000000  0.90631000  1.0
  Sb  Sb12  1  0.00000000  0.00000000  0.96877000  1.0
  Sb  Sb13  1  0.49999000  0.00002000  0.11098000  1.0
  Sb  Sb14  1  0.50000000  0.50000000  0.96877000  1.0
  Sb  Sb15  1  0.99999000  0.50004000  0.09321000  1.0
  C  C16  1  0.99998000  0.49998000  0.26231000  1.0
  O  O17  1  0.99982000  0.49982000  0.30839000  1.0
