# generated using pymatgen
data_Zr4Ni8Sb4CO
_symmetry_space_group_name_H-M   'P 1'
_cell_length_a   6.34847000
_cell_length_b   6.34847000
_cell_length_c   24.76130000
_cell_angle_alpha   90.00000000
_cell_angle_beta   90.00000000
_cell_angle_gamma   90.00000000
_symmetry_Int_Tables_number   1
_chemical_formula_structural   Zr4Ni8Sb4CO
_chemical_formula_sum   'Zr4 Ni8 Sb4 C1 O1'
_cell_volume   997.95644039
_cell_formula_units_Z   1
loop_
 _symmetry_equiv_pos_site_id
 _symmetry_equiv_pos_as_xyz
  1  'x, y, z'
loop_
 _atom_site_type_symbol
 _atom_site_label
 _atom_site_symmetry_multiplicity
 _atom_site_fract_x
 _atom_site_fract_y
 _atom_site_fract_z
 _atom_site_occupancy
  Zr  Zr0  1  0.99997000  0.00023000  0.09112000  1.0
  Zr  Zr1  1  0.50002000  0.50011000  0.09109000  1.0
  Zr  Zr2  1  0.50000000  0.00000000  0.96795000  1.0
  Zr  Zr3  1  0.00000000  0.50000000  0.96795000  1.0
  Ni  Ni4  1  0.25851000  0.24141000  0.03406000  1.0
  Ni  Ni5  1  0.75000000  0.75000000  0.90386000  1.0
  Ni  Ni6  1  0.74119000  0.24133000  0.03409000  1.0
  Ni  Ni7  1  0.25000000  0.75000000  0.90386000  1.0
  Ni  Ni8  1  0.74175000  0.75863000  0.03408000  1.0
  Ni  Ni9  1  0.25000000  0.25000000  0.90386000  1.0
  Ni  Ni10  1  0.25854000  0.75874000  0.03411000  1.0
  Ni  Ni11  1  0.75000000  0.25000000  0.90386000  1.0
  Sb  Sb12  1  0.00000000  0.00000000  0.96795000  1.0
  Sb  Sb13  1  0.49998000  0.00004000  0.10462000  1.0
  Sb  Sb14  1  0.00002000  0.50012000  0.09827000  1.0
  Sb  Sb15  1  0.50000000  0.50000000  0.96795000  1.0
  C  C16  1  0.99941000  0.49840000  0.26477000  1.0
  O  O17  1  0.00004000  0.50030000  0.31032000  1.0
