# generated using pymatgen
data_Y8In8Sn8Pd8CO
_symmetry_space_group_name_H-M   Pm
_cell_length_a   9.16402000
_cell_length_b   9.06394000
_cell_length_c   26.55030000
_cell_angle_alpha   90.00000000
_cell_angle_beta   90.00000000
_cell_angle_gamma   90.00000000
_symmetry_Int_Tables_number   6
_chemical_formula_structural   Y8In8Sn8Pd8CO
_chemical_formula_sum   'Y8 In8 Sn8 Pd8 C1 O1'
_cell_volume   2205.32440214
_cell_formula_units_Z   1
loop_
 _symmetry_equiv_pos_site_id
 _symmetry_equiv_pos_as_xyz
  1  'x, y, z'
  2  'x, -y, z'
loop_
 _atom_site_type_symbol
 _atom_site_label
 _atom_site_symmetry_multiplicity
 _atom_site_fract_x
 _atom_site_fract_y
 _atom_site_fract_z
 _atom_site_occupancy
  Y  Y0  1  0.25000000  0.00000000  0.87664000  1.0
  Y  Y1  1  0.25000000  0.50000000  0.87664000  1.0
  Y  Y2  1  0.25439000  0.00000000  0.04478000  1.0
  Y  Y3  1  0.25580000  0.50000000  0.04535000  1.0
  Y  Y4  1  0.74422000  0.50000000  0.04536000  1.0
  Y  Y5  1  0.74562000  0.00000000  0.04478000  1.0
  Y  Y6  1  0.75000000  0.00000000  0.87664000  1.0
  Y  Y7  1  0.75000000  0.50000000  0.87664000  1.0
  In  In8  2  0.00000000  0.25000000  0.87664000  1.0
  In  In9  2  0.00001000  0.25163000  0.04928000  1.0
  In  In10  2  0.50000000  0.25000000  0.87664000  1.0
  In  In11  2  0.50000000  0.25010000  0.03573000  1.0
  Sn  Sn12  2  0.25000000  0.25000000  0.95888000  1.0
  Sn  Sn13  2  0.31927000  0.24838000  0.13370000  1.0
  Sn  Sn14  2  0.68068000  0.24837000  0.13371000  1.0
  Sn  Sn15  2  0.75000000  0.25000000  0.95888000  1.0
  Pd  Pd16  1  0.00000000  0.00000000  0.95888000  1.0
  Pd  Pd17  1  0.00000000  0.50000000  0.95888000  1.0
  Pd  Pd18  1  0.00002000  0.00000000  0.10792000  1.0
  Pd  Pd19  1  0.00006000  0.50000000  0.11393000  1.0
  Pd  Pd20  1  0.49998000  0.00000000  0.12007000  1.0
  Pd  Pd21  1  0.49999000  0.50000000  0.12090000  1.0
  Pd  Pd22  1  0.50000000  0.00000000  0.95888000  1.0
  Pd  Pd23  1  0.50000000  0.50000000  0.95888000  1.0
  C  C24  1  0.99997000  0.50000000  0.19006000  1.0
  O  O25  1  0.00000000  0.50000000  0.23326000  1.0
