# generated using pymatgen
data_Li16Ga8Ir8C
_symmetry_space_group_name_H-M   'P 1'
_cell_length_a   8.51164000
_cell_length_b   6.01864000
_cell_length_c   26.38370000
_cell_angle_alpha   90.00000000
_cell_angle_beta   90.00000000
_cell_angle_gamma   90.00000000
_symmetry_Int_Tables_number   1
_chemical_formula_structural   Li16Ga8Ir8C
_chemical_formula_sum   'Li16 Ga8 Ir8 C1'
_cell_volume   1351.59729550
_cell_formula_units_Z   1
loop_
 _symmetry_equiv_pos_site_id
 _symmetry_equiv_pos_as_xyz
  1  'x, y, z'
loop_
 _atom_site_type_symbol
 _atom_site_label
 _atom_site_symmetry_multiplicity
 _atom_site_fract_x
 _atom_site_fract_y
 _atom_site_fract_z
 _atom_site_occupancy
  Li  Li0  1  0.75000000  0.00000000  0.04033000  1.0
  Li  Li1  1  0.00000000  0.50000000  0.12098000  1.0
  Li  Li2  1  0.25000000  0.00000000  0.04033000  1.0
  Li  Li3  1  0.50000000  0.50000000  0.12098000  1.0
  Li  Li4  1  0.00000000  0.25000000  0.04033000  1.0
  Li  Li5  1  0.50000000  0.25000000  0.04033000  1.0
  Li  Li6  1  0.75000000  0.75000000  0.12098000  1.0
  Li  Li7  1  0.25000000  0.75000000  0.12098000  1.0
  Li  Li8  1  0.24804000  0.99094000  0.87560000  1.0
  Li  Li9  1  0.50000000  0.49373000  0.96135000  1.0
  Li  Li10  1  0.75196000  0.99094000  0.87560000  1.0
  Li  Li11  1  0.00000000  0.49133000  0.95444000  1.0
  Li  Li12  1  0.50000000  0.25725000  0.86015000  1.0
  Li  Li13  1  0.00000000  0.25833000  0.83674000  1.0
  Li  Li14  1  0.24449000  0.74915000  0.95942000  1.0
  Li  Li15  1  0.75551000  0.74915000  0.95942000  1.0
  Ga  Ga16  1  0.25000000  0.25000000  0.12098000  1.0
  Ga  Ga17  1  0.75000000  0.25000000  0.12098000  1.0
  Ga  Ga18  1  0.50000000  0.75000000  0.04033000  1.0
  Ga  Ga19  1  0.00000000  0.75000000  0.04033000  1.0
  Ga  Ga20  1  0.74373000  0.24892000  0.96204000  1.0
  Ga  Ga21  1  0.25627000  0.24892000  0.96204000  1.0
  Ga  Ga22  1  0.00000000  0.66185000  0.85779000  1.0
  Ga  Ga23  1  0.50000000  0.71254000  0.88030000  1.0
  Ir  Ir24  1  0.00000000  0.00000000  0.12098000  1.0
  Ir  Ir25  1  0.25000000  0.50000000  0.04033000  1.0
  Ir  Ir26  1  0.75000000  0.50000000  0.04033000  1.0
  Ir  Ir27  1  0.50000000  0.00000000  0.12098000  1.0
  Ir  Ir28  1  0.50000000  0.99676000  0.95444000  1.0
  Ir  Ir29  1  0.74578000  0.48047000  0.88310000  1.0
  Ir  Ir30  1  0.25422000  0.48047000  0.88310000  1.0
  Ir  Ir31  1  0.00000000  0.01872000  0.95007000  1.0
  C  C32  1  0.00000000  0.97816000  0.88026000  1.0
