# generated using pymatgen
data_Zr8Ti4Al4CO
_symmetry_space_group_name_H-M   Cmm2
_cell_length_a   9.63208129
_cell_length_b   9.63208129
_cell_length_c   25.10820000
_cell_angle_alpha   90.00000000
_cell_angle_beta   90.00000000
_cell_angle_gamma   90.00000000
_symmetry_Int_Tables_number   35
_chemical_formula_structural   Zr8Ti4Al4CO
_chemical_formula_sum   'Zr16 Ti8 Al8 C2 O2'
_cell_volume   2329.46322173
_cell_formula_units_Z   2
loop_
 _symmetry_equiv_pos_site_id
 _symmetry_equiv_pos_as_xyz
  1  'x, y, z'
  2  '-x, -y, z'
  3  '-x, y, z'
  4  'x, -y, z'
  5  'x+1/2, y+1/2, z'
  6  '-x+1/2, -y+1/2, z'
  7  '-x+1/2, y+1/2, z'
  8  'x+1/2, -y+1/2, z'
loop_
 _atom_site_type_symbol
 _atom_site_label
 _atom_site_symmetry_multiplicity
 _atom_site_fract_x
 _atom_site_fract_y
 _atom_site_fract_z
 _atom_site_occupancy
  Zr  Zr0  4  0.25000000  0.25000000  0.10172000  1.0
  Zr  Zr1  4  0.25000000  0.25000000  0.96609000  1.0
  Zr  Zr2  2  0.00000000  0.00000000  0.10172000  1.0
  Zr  Zr3  2  0.00000000  0.00000000  0.96609000  1.0
  Zr  Zr4  2  0.00000000  0.50000000  0.10172000  1.0
  Zr  Zr5  2  0.00000000  0.50000000  0.96609000  1.0
  Ti  Ti6  4  0.00000000  0.25000000  0.89828000  1.0
  Ti  Ti7  4  0.25000000  0.50000000  0.03391000  1.0
  Al  Al8  4  0.00000000  0.25000000  0.03391000  1.0
  Al  Al9  4  0.25000000  0.50000000  0.89828000  1.0
  C  C10  2  0.00000000  0.50000000  0.17740000  1.0
  O  O11  2  0.00000000  0.50000000  0.22320000  1.0
