# generated using pymatgen
data_Y16Rh16C
_symmetry_space_group_name_H-M   'P 1'
_cell_length_a   6.88160000
_cell_length_b   9.73205000
_cell_length_c   27.29900000
_cell_angle_alpha   90.00000000
_cell_angle_beta   90.00000000
_cell_angle_gamma   90.00000000
_symmetry_Int_Tables_number   1
_chemical_formula_structural   Y16Rh16C
_chemical_formula_sum   'Y16 Rh16 C1'
_cell_volume   1828.27068307
_cell_formula_units_Z   1
loop_
 _symmetry_equiv_pos_site_id
 _symmetry_equiv_pos_as_xyz
  1  'x, y, z'
loop_
 _atom_site_type_symbol
 _atom_site_label
 _atom_site_symmetry_multiplicity
 _atom_site_fract_x
 _atom_site_fract_y
 _atom_site_fract_z
 _atom_site_occupancy
  Y  Y0  1  0.25000000  0.25000000  0.86631000  1.0
  Y  Y1  1  0.25000000  0.00000000  0.95544000  1.0
  Y  Y2  1  0.25276000  0.24204000  0.05325000  1.0
  Y  Y3  1  0.25112000  0.50354000  0.13866000  1.0
  Y  Y4  1  0.25000000  0.75000000  0.86631000  1.0
  Y  Y5  1  0.25000000  0.50000000  0.95544000  1.0
  Y  Y6  1  0.25011000  0.74450000  0.04411000  1.0
  Y  Y7  1  0.26145000  0.98215000  0.14700000  1.0
  Y  Y8  1  0.75000000  0.25000000  0.86631000  1.0
  Y  Y9  1  0.75000000  0.00000000  0.95544000  1.0
  Y  Y10  1  0.74715000  0.24202000  0.05328000  1.0
  Y  Y11  1  0.74905000  0.50348000  0.13866000  1.0
  Y  Y12  1  0.75000000  0.75000000  0.86631000  1.0
  Y  Y13  1  0.75000000  0.50000000  0.95544000  1.0
  Y  Y14  1  0.74979000  0.74449000  0.04410000  1.0
  Y  Y15  1  0.73848000  0.98217000  0.14699000  1.0
  Rh  Rh16  1  0.00000000  0.00000000  0.86631000  1.0
  Rh  Rh17  1  1.00000000  0.25000000  0.95544000  1.0
  Rh  Rh18  1  0.00003000  0.98776000  0.03908000  1.0
  Rh  Rh19  1  0.00032000  0.25793000  0.14147000  1.0
  Rh  Rh20  1  0.00000000  0.50000000  0.86631000  1.0
  Rh  Rh21  1  1.00000000  0.75000000  0.95544000  1.0
  Rh  Rh22  1  0.00007000  0.50122000  0.04761000  1.0
  Rh  Rh23  1  0.00001000  0.73174000  0.12600000  1.0
  Rh  Rh24  1  0.50000000  0.00000000  0.86631000  1.0
  Rh  Rh25  1  0.50000000  0.25000000  0.95544000  1.0
  Rh  Rh26  1  0.49984000  0.98849000  0.05061000  1.0
  Rh  Rh27  1  0.49971000  0.24383000  0.13982000  1.0
  Rh  Rh28  1  0.50000000  0.50000000  0.86631000  1.0
  Rh  Rh29  1  0.50000000  0.75000000  0.95544000  1.0
  Rh  Rh30  1  0.50002000  0.49757000  0.04624000  1.0
  Rh  Rh31  1  0.49999000  0.74589000  0.12620000  1.0
  C  C32  1  0.99994000  0.08177000  0.10543000  1.0
