# generated using pymatgen
data_Mn8Co16Ge8CO
_symmetry_space_group_name_H-M   'P 1'
_cell_length_a   5.75846000
_cell_length_b   8.14369000
_cell_length_c   26.10780000
_cell_angle_alpha   90.00000000
_cell_angle_beta   90.00000000
_cell_angle_gamma   90.00000000
_symmetry_Int_Tables_number   1
_chemical_formula_structural   Mn8Co16Ge8CO
_chemical_formula_sum   'Mn8 Co16 Ge8 C1 O1'
_cell_volume   1224.32823425
_cell_formula_units_Z   1
loop_
 _symmetry_equiv_pos_site_id
 _symmetry_equiv_pos_as_xyz
  1  'x, y, z'
loop_
 _atom_site_type_symbol
 _atom_site_label
 _atom_site_symmetry_multiplicity
 _atom_site_fract_x
 _atom_site_fract_y
 _atom_site_fract_z
 _atom_site_occupancy
  Mn  Mn0  1  0.00000000  0.75000000  0.88303000  1.0
  Mn  Mn1  1  0.50000000  0.00000000  0.96101000  1.0
  Mn  Mn2  1  0.50000000  0.50000000  0.96101000  1.0
  Mn  Mn3  1  0.00000000  0.25000000  0.88303000  1.0
  Mn  Mn4  1  0.00000000  0.24979000  0.03858000  1.0
  Mn  Mn5  1  0.50000000  0.50000000  0.11909000  1.0
  Mn  Mn6  1  0.50000000  0.00000000  0.11707000  1.0
  Mn  Mn7  1  0.00000000  0.75021000  0.03858000  1.0
  Co  Co8  1  0.25000000  0.75000000  0.96101000  1.0
  Co  Co9  1  0.75000000  0.25000000  0.96101000  1.0
  Co  Co10  1  0.75000000  0.75000000  0.96101000  1.0
  Co  Co11  1  0.25000000  0.25000000  0.96101000  1.0
  Co  Co12  1  0.75000000  0.50000000  0.88303000  1.0
  Co  Co13  1  0.25000000  0.00000000  0.88303000  1.0
  Co  Co14  1  0.25000000  0.50000000  0.88303000  1.0
  Co  Co15  1  0.75000000  0.00000000  0.88303000  1.0
  Co  Co16  1  0.24104000  0.24779000  0.11477000  1.0
  Co  Co17  1  0.75896000  0.75221000  0.11477000  1.0
  Co  Co18  1  0.75896000  0.24779000  0.11477000  1.0
  Co  Co19  1  0.24104000  0.75221000  0.11477000  1.0
  Co  Co20  1  0.74826000  0.00000000  0.03888000  1.0
  Co  Co21  1  0.25017000  0.50000000  0.03911000  1.0
  Co  Co22  1  0.25174000  0.00000000  0.03888000  1.0
  Co  Co23  1  0.74983000  0.50000000  0.03911000  1.0
  Ge  Ge24  1  0.00000000  0.50000000  0.96101000  1.0
  Ge  Ge25  1  0.50000000  0.75000000  0.88303000  1.0
  Ge  Ge26  1  0.00000000  0.00000000  0.96101000  1.0
  Ge  Ge27  1  0.50000000  0.25000000  0.88303000  1.0
  Ge  Ge28  1  0.00000000  0.00000000  0.11812000  1.0
  Ge  Ge29  1  0.50000000  0.25009000  0.03954000  1.0
  Ge  Ge30  1  0.00000000  0.50000000  0.11867000  1.0
  Ge  Ge31  1  0.50000000  0.74991000  0.03954000  1.0
  C  C32  1  0.50000000  0.00000000  0.18879000  1.0
  O  O33  1  0.50000000  0.00000000  0.23315000  1.0
