data_image0
_chemical_formula_structural       In4Pt12C
_chemical_formula_sum              "In4 Pt12 C1"
_cell_length_a       8.16408
_cell_length_b       5.77288
_cell_length_c       24.3297
_cell_angle_alpha    90
_cell_angle_beta     90
_cell_angle_gamma    90

_space_group_name_H-M_alt    "P 1"
_space_group_IT_number       1

loop_
  _space_group_symop_operation_xyz
  'x, y, z'

loop_
  _atom_site_type_symbol
  _atom_site_label
  _atom_site_symmetry_multiplicity
  _atom_site_fract_x
  _atom_site_fract_y
  _atom_site_fract_z
  _atom_site_occupancy
  In  In1       1.0  0.97924  0.99726  0.09282  1.0000
  In  In2       1.0  0.00000  0.50000  0.97034  1.0000
  In  In3       1.0  0.52076  0.99726  0.09282  1.0000
  In  In4       1.0  0.50000  0.50000  0.97034  1.0000
  Pt  Pt1       1.0  0.00734  0.49791  0.08866  1.0000
  Pt  Pt2       1.0  0.25000  0.75895  0.03173  1.0000
  Pt  Pt3       1.0  0.25000  0.23488  0.03225  1.0000
  Pt  Pt4       1.0  0.00000  0.00000  0.97034  1.0000
  Pt  Pt5       1.0  0.25000  0.25000  0.91102  1.0000
  Pt  Pt6       1.0  0.25000  0.75000  0.91102  1.0000
  Pt  Pt7       1.0  0.49266  0.49791  0.08866  1.0000
  Pt  Pt8       1.0  0.75000  0.74595  0.03273  1.0000
  Pt  Pt9       1.0  0.75000  0.25082  0.03291  1.0000
  Pt  Pt10      1.0  0.50000  0.00000  0.97034  1.0000
  Pt  Pt11      1.0  0.75000  0.25000  0.91102  1.0000
  Pt  Pt12      1.0  0.75000  0.75000  0.91102  1.0000
  C   C1        1.0  0.25000  0.49774  0.08767  1.0000
