# generated using pymatgen
data_In4Pt12C
_symmetry_space_group_name_H-M   'P 1'
_cell_length_a   8.16408000
_cell_length_b   5.77288000
_cell_length_c   24.32970000
_cell_angle_alpha   90.00000000
_cell_angle_beta   90.00000000
_cell_angle_gamma   90.00000000
_symmetry_Int_Tables_number   1
_chemical_formula_structural   In4Pt12C
_chemical_formula_sum   'In4 Pt12 C1'
_cell_volume   1146.66494440
_cell_formula_units_Z   1
loop_
 _symmetry_equiv_pos_site_id
 _symmetry_equiv_pos_as_xyz
  1  'x, y, z'
loop_
 _atom_site_type_symbol
 _atom_site_label
 _atom_site_symmetry_multiplicity
 _atom_site_fract_x
 _atom_site_fract_y
 _atom_site_fract_z
 _atom_site_occupancy
  In  In0  1  0.77076000  0.00274000  0.09282000  1.0
  In  In1  1  0.75000000  0.50000000  0.97034000  1.0
  In  In2  1  0.22924000  0.00274000  0.09282000  1.0
  In  In3  1  0.25000000  0.50000000  0.97034000  1.0
  Pt  Pt4  1  0.74266000  0.50209000  0.08866000  1.0
  Pt  Pt5  1  0.50000000  0.24105000  0.03173000  1.0
  Pt  Pt6  1  0.50000000  0.76512000  0.03225000  1.0
  Pt  Pt7  1  0.75000000  0.00000000  0.97034000  1.0
  Pt  Pt8  1  0.50000000  0.75000000  0.91102000  1.0
  Pt  Pt9  1  0.50000000  0.25000000  0.91102000  1.0
  Pt  Pt10  1  0.25734000  0.50209000  0.08866000  1.0
  Pt  Pt11  1  0.00000000  0.25405000  0.03273000  1.0
  Pt  Pt12  1  0.00000000  0.74918000  0.03291000  1.0
  Pt  Pt13  1  0.25000000  0.00000000  0.97034000  1.0
  Pt  Pt14  1  0.00000000  0.75000000  0.91102000  1.0
  Pt  Pt15  1  0.00000000  0.25000000  0.91102000  1.0
  C  C16  1  0.50000000  0.50226000  0.08767000  1.0
