# generated using pymatgen
data_LiMg2Ge
_symmetry_space_group_name_H-M   'P 1'
_cell_length_a   6.76484000
_cell_length_b   9.56693000
_cell_length_c   27.17520000
_cell_angle_alpha   90.00000000
_cell_angle_beta   90.00000000
_cell_angle_gamma   90.00000000
_symmetry_Int_Tables_number   1
_chemical_formula_structural   LiMg2Ge
_chemical_formula_sum   'Li8 Mg16 Ge8'
_cell_volume   1758.74499514
_cell_formula_units_Z   8
loop_
 _symmetry_equiv_pos_site_id
 _symmetry_equiv_pos_as_xyz
  1  'x, y, z'
loop_
 _atom_site_type_symbol
 _atom_site_label
 _atom_site_symmetry_multiplicity
 _atom_site_fract_x
 _atom_site_fract_y
 _atom_site_fract_z
 _atom_site_occupancy
  Li  Li0  1  0.00000000  0.75000000  0.86798000  1.0
  Li  Li1  1  0.50000000  0.00000000  0.95599000  1.0
  Li  Li2  1  0.50000000  0.50000000  0.95599000  1.0
  Li  Li3  1  0.00000000  0.25000000  0.86798000  1.0
  Li  Li4  1  0.00000000  0.25002000  0.04939000  1.0
  Li  Li5  1  0.50000000  0.50000000  0.15959000  1.0
  Li  Li6  1  0.50000000  0.00000000  0.15958000  1.0
  Li  Li7  1  0.00000000  0.74998000  0.04939000  1.0
  Mg  Mg8  1  0.25000000  0.75000000  0.95599000  1.0
  Mg  Mg9  1  0.75000000  0.25000000  0.95599000  1.0
  Mg  Mg10  1  0.75000000  0.75000000  0.95599000  1.0
  Mg  Mg11  1  0.25000000  0.25000000  0.95599000  1.0
  Mg  Mg12  1  0.75000000  0.50000000  0.86798000  1.0
  Mg  Mg13  1  0.25000000  0.00000000  0.86798000  1.0
  Mg  Mg14  1  0.25000000  0.50000000  0.86798000  1.0
  Mg  Mg15  1  0.75000000  0.00000000  0.86798000  1.0
  Mg  Mg16  1  0.26306000  0.25001000  0.13735000  1.0
  Mg  Mg17  1  0.73694000  0.74999000  0.13735000  1.0
  Mg  Mg18  1  0.73694000  0.25001000  0.13735000  1.0
  Mg  Mg19  1  0.26306000  0.74999000  0.13735000  1.0
  Mg  Mg20  1  0.74158000  0.00000000  0.04637000  1.0
  Mg  Mg21  1  0.25814000  0.50000000  0.04641000  1.0
  Mg  Mg22  1  0.25842000  0.00000000  0.04637000  1.0
  Mg  Mg23  1  0.74186000  0.50000000  0.04641000  1.0
  Ge  Ge24  1  0.00000000  0.50000000  0.95599000  1.0
  Ge  Ge25  1  0.50000000  0.75000000  0.86798000  1.0
  Ge  Ge26  1  0.00000000  0.00000000  0.95599000  1.0
  Ge  Ge27  1  0.50000000  0.25000000  0.86798000  1.0
  Ge  Ge28  1  0.00000000  0.00000000  0.12823000  1.0
  Ge  Ge29  1  0.50000000  0.25006000  0.04044000  1.0
  Ge  Ge30  1  0.00000000  0.50000000  0.12820000  1.0
  Ge  Ge31  1  0.50000000  0.74994000  0.04044000  1.0
