data_image0
_chemical_formula_structural       Y8In8Pd16C
_chemical_formula_sum              "Y8 In8 Pd16 C1"
_cell_length_a       6.85111
_cell_length_b       9.68893
_cell_length_c       27.2667
_cell_angle_alpha    90
_cell_angle_beta     90
_cell_angle_gamma    90

_space_group_name_H-M_alt    "P 1"
_space_group_IT_number       1

loop_
  _space_group_symop_operation_xyz
  'x, y, z'

loop_
  _atom_site_type_symbol
  _atom_site_label
  _atom_site_symmetry_multiplicity
  _atom_site_fract_x
  _atom_site_fract_y
  _atom_site_fract_z
  _atom_site_occupancy
  Y   Y1        1.0  0.00000  0.00000  0.86675  1.0000
  Y   Y2        1.0  0.50000  0.25000  0.95558  1.0000
  Y   Y3        1.0  0.50000  0.75000  0.95558  1.0000
  Y   Y4        1.0  0.00000  0.50000  0.86675  1.0000
  Y   Y5        1.0  1.00000  0.50000  0.04395  1.0000
  Y   Y6        1.0  0.50000  0.74073  0.13401  1.0000
  Y   Y7        1.0  0.50000  0.25927  0.13401  1.0000
  Y   Y8        1.0  1.00000  0.00000  0.04694  1.0000
  In  In1       1.0  0.00000  0.75000  0.95558  1.0000
  In  In2       1.0  0.50000  0.00000  0.86675  1.0000
  In  In3       1.0  0.00000  0.25000  0.95558  1.0000
  In  In4       1.0  0.50000  0.50000  0.86675  1.0000
  In  In5       1.0  0.00000  0.24849  0.13658  1.0000
  In  In6       1.0  0.50000  0.50000  0.04695  1.0000
  In  In7       1.0  1.00000  0.75151  0.13658  1.0000
  In  In8       1.0  0.50000  0.00000  0.04462  1.0000
  Pd  Pd1       1.0  0.25000  0.00000  0.95558  1.0000
  Pd  Pd2       1.0  0.75000  0.50000  0.95558  1.0000
  Pd  Pd3       1.0  0.75000  0.00000  0.95558  1.0000
  Pd  Pd4       1.0  0.25000  0.50000  0.95558  1.0000
  Pd  Pd5       1.0  0.75000  0.75000  0.86675  1.0000
  Pd  Pd6       1.0  0.25000  0.25000  0.86675  1.0000
  Pd  Pd7       1.0  0.25000  0.75000  0.86675  1.0000
  Pd  Pd8       1.0  0.75000  0.25000  0.86675  1.0000
  Pd  Pd9       1.0  0.22742  0.50000  0.13018  1.0000
  Pd  Pd10      1.0  0.70983  0.00000  0.13387  1.0000
  Pd  Pd11      1.0  0.77258  0.50000  0.13018  1.0000
  Pd  Pd12      1.0  0.29017  1.00000  0.13387  1.0000
  Pd  Pd13      1.0  0.74443  0.25269  0.04539  1.0000
  Pd  Pd14      1.0  0.25557  0.74731  0.04539  1.0000
  Pd  Pd15      1.0  0.25557  0.25269  0.04539  1.0000
  Pd  Pd16      1.0  0.74443  0.74731  0.04539  1.0000
  C   C1        1.0  0.00000  0.00000  0.13878  1.0000
