# generated using pymatgen
data_Y8In8Pd16C
_symmetry_space_group_name_H-M   'P 1'
_cell_length_a   6.85111000
_cell_length_b   9.68893000
_cell_length_c   27.26670000
_cell_angle_alpha   90.00000000
_cell_angle_beta   90.00000000
_cell_angle_gamma   90.00000000
_symmetry_Int_Tables_number   1
_chemical_formula_structural   Y8In8Pd16C
_chemical_formula_sum   'Y8 In8 Pd16 C1'
_cell_volume   1809.96150679
_cell_formula_units_Z   1
loop_
 _symmetry_equiv_pos_site_id
 _symmetry_equiv_pos_as_xyz
  1  'x, y, z'
loop_
 _atom_site_type_symbol
 _atom_site_label
 _atom_site_symmetry_multiplicity
 _atom_site_fract_x
 _atom_site_fract_y
 _atom_site_fract_z
 _atom_site_occupancy
  Y  Y0  1  0.00000000  0.00000000  0.86675000  1.0
  Y  Y1  1  0.50000000  0.25000000  0.95558000  1.0
  Y  Y2  1  0.50000000  0.75000000  0.95558000  1.0
  Y  Y3  1  0.00000000  0.50000000  0.86675000  1.0
  Y  Y4  1  0.00000000  0.50000000  0.04395000  1.0
  Y  Y5  1  0.50000000  0.74073000  0.13401000  1.0
  Y  Y6  1  0.50000000  0.25927000  0.13401000  1.0
  Y  Y7  1  0.00000000  0.00000000  0.04694000  1.0
  In  In8  1  0.00000000  0.75000000  0.95558000  1.0
  In  In9  1  0.50000000  0.00000000  0.86675000  1.0
  In  In10  1  0.00000000  0.25000000  0.95558000  1.0
  In  In11  1  0.50000000  0.50000000  0.86675000  1.0
  In  In12  1  0.00000000  0.24849000  0.13658000  1.0
  In  In13  1  0.50000000  0.50000000  0.04695000  1.0
  In  In14  1  0.00000000  0.75151000  0.13658000  1.0
  In  In15  1  0.50000000  0.00000000  0.04462000  1.0
  Pd  Pd16  1  0.25000000  0.00000000  0.95558000  1.0
  Pd  Pd17  1  0.75000000  0.50000000  0.95558000  1.0
  Pd  Pd18  1  0.75000000  0.00000000  0.95558000  1.0
  Pd  Pd19  1  0.25000000  0.50000000  0.95558000  1.0
  Pd  Pd20  1  0.75000000  0.75000000  0.86675000  1.0
  Pd  Pd21  1  0.25000000  0.25000000  0.86675000  1.0
  Pd  Pd22  1  0.25000000  0.75000000  0.86675000  1.0
  Pd  Pd23  1  0.75000000  0.25000000  0.86675000  1.0
  Pd  Pd24  1  0.22742000  0.50000000  0.13018000  1.0
  Pd  Pd25  1  0.70983000  0.00000000  0.13387000  1.0
  Pd  Pd26  1  0.77258000  0.50000000  0.13018000  1.0
  Pd  Pd27  1  0.29017000  0.00000000  0.13387000  1.0
  Pd  Pd28  1  0.74443000  0.25269000  0.04539000  1.0
  Pd  Pd29  1  0.25557000  0.74731000  0.04539000  1.0
  Pd  Pd30  1  0.25557000  0.25269000  0.04539000  1.0
  Pd  Pd31  1  0.74443000  0.74731000  0.04539000  1.0
  C  C32  1  0.00000000  0.00000000  0.13878000  1.0
