# generated using pymatgen
data_Y8In8Pd16C
_symmetry_space_group_name_H-M   Pmm2
_cell_length_a   6.85111000
_cell_length_b   9.68893000
_cell_length_c   27.26670000
_cell_angle_alpha   90.00000000
_cell_angle_beta   90.00000000
_cell_angle_gamma   90.00000000
_symmetry_Int_Tables_number   25
_chemical_formula_structural   Y8In8Pd16C
_chemical_formula_sum   'Y8 In8 Pd16 C1'
_cell_volume   1809.96150679
_cell_formula_units_Z   1
loop_
 _symmetry_equiv_pos_site_id
 _symmetry_equiv_pos_as_xyz
  1  'x, y, z'
  2  '-x, -y, z'
  3  '-x, y, z'
  4  'x, -y, z'
loop_
 _atom_site_type_symbol
 _atom_site_label
 _atom_site_symmetry_multiplicity
 _atom_site_fract_x
 _atom_site_fract_y
 _atom_site_fract_z
 _atom_site_occupancy
  Y  Y0  2  0.50000000  0.25000000  0.95558000  1.0
  Y  Y1  2  0.50000000  0.25927000  0.13401000  1.0
  Y  Y2  1  0.00000000  0.00000000  0.04694000  1.0
  Y  Y3  1  0.00000000  0.00000000  0.86675000  1.0
  Y  Y4  1  0.00000000  0.50000000  0.04395000  1.0
  Y  Y5  1  0.00000000  0.50000000  0.86675000  1.0
  In  In6  2  0.00000000  0.24849000  0.13658000  1.0
  In  In7  2  0.00000000  0.25000000  0.95558000  1.0
  In  In8  1  0.50000000  0.00000000  0.04462000  1.0
  In  In9  1  0.50000000  0.00000000  0.86675000  1.0
  In  In10  1  0.50000000  0.50000000  0.04695000  1.0
  In  In11  1  0.50000000  0.50000000  0.86675000  1.0
  Pd  Pd12  4  0.25000000  0.25000000  0.86675000  1.0
  Pd  Pd13  4  0.25557000  0.25269000  0.04539000  1.0
  Pd  Pd14  2  0.22742000  0.50000000  0.13018000  1.0
  Pd  Pd15  2  0.25000000  0.00000000  0.95558000  1.0
  Pd  Pd16  2  0.25000000  0.50000000  0.95558000  1.0
  Pd  Pd17  2  0.29017000  0.00000000  0.13387000  1.0
  C  C18  1  0.00000000  0.00000000  0.13878000  1.0
