# generated using pymatgen
data_Li16Al8Rh8CO
_symmetry_space_group_name_H-M   'P 1'
_cell_length_a   8.51164000
_cell_length_b   6.01864000
_cell_length_c   26.38370000
_cell_angle_alpha   90.00000000
_cell_angle_beta   90.00000000
_cell_angle_gamma   90.00000000
_symmetry_Int_Tables_number   1
_chemical_formula_structural   Li16Al8Rh8CO
_chemical_formula_sum   'Li16 Al8 Rh8 C1 O1'
_cell_volume   1351.59729550
_cell_formula_units_Z   1
loop_
 _symmetry_equiv_pos_site_id
 _symmetry_equiv_pos_as_xyz
  1  'x, y, z'
loop_
 _atom_site_type_symbol
 _atom_site_label
 _atom_site_symmetry_multiplicity
 _atom_site_fract_x
 _atom_site_fract_y
 _atom_site_fract_z
 _atom_site_occupancy
  Li  Li0  1  0.50000000  0.00000000  0.04033000  1.0
  Li  Li1  1  0.74999000  0.50000000  0.12098000  1.0
  Li  Li2  1  0.00000000  0.00000000  0.04033000  1.0
  Li  Li3  1  0.25001000  0.50000000  0.12098000  1.0
  Li  Li4  1  0.00000000  0.25000000  0.12098000  1.0
  Li  Li5  1  0.50000000  0.25000000  0.12098000  1.0
  Li  Li6  1  0.24999000  0.75000000  0.04033000  1.0
  Li  Li7  1  0.75001000  0.75000000  0.04033000  1.0
  Li  Li8  1  0.00000000  0.01493000  0.86951000  1.0
  Li  Li9  1  0.24997000  0.50368000  0.96097000  1.0
  Li  Li10  1  0.50000000  0.01728000  0.86725000  1.0
  Li  Li11  1  0.75003000  0.50368000  0.96097000  1.0
  Li  Li12  1  0.50000000  0.23942000  0.96112000  1.0
  Li  Li13  1  0.00000000  0.23473000  0.96261000  1.0
  Li  Li14  1  0.75212000  0.74606000  0.87400000  1.0
  Li  Li15  1  0.24788000  0.74606000  0.87400000  1.0
  Al  Al16  1  0.74999000  0.00000000  0.12098000  1.0
  Al  Al17  1  0.00000000  0.50000000  0.04033000  1.0
  Al  Al18  1  0.50000000  0.50000000  0.04033000  1.0
  Al  Al19  1  0.25001000  0.00000000  0.12098000  1.0
  Al  Al20  1  0.25035000  0.99718000  0.95902000  1.0
  Al  Al21  1  0.50000000  0.48113000  0.88266000  1.0
  Al  Al22  1  0.00000000  0.47706000  0.88518000  1.0
  Al  Al23  1  0.74965000  0.99718000  0.95902000  1.0
  Rh  Rh24  1  0.74999000  0.25000000  0.04033000  1.0
  Rh  Rh25  1  0.25001000  0.25000000  0.04033000  1.0
  Rh  Rh26  1  0.50000000  0.75000000  0.12098000  1.0
  Rh  Rh27  1  0.00000000  0.75000000  0.12098000  1.0
  Rh  Rh28  1  0.25176000  0.26155000  0.88567000  1.0
  Rh  Rh29  1  0.74824000  0.26155000  0.88567000  1.0
  Rh  Rh30  1  0.00000000  0.75516000  0.95684000  1.0
  Rh  Rh31  1  0.50000000  0.75580000  0.95510000  1.0
  C  C32  1  0.00000000  0.99198000  0.79141000  1.0
  O  O33  1  0.00000000  0.00126000  0.74811000  1.0
