# generated using pymatgen
data_Li16Al8Rh8CO
_symmetry_space_group_name_H-M   Pm
_cell_length_a   6.01864000
_cell_length_b   8.51164000
_cell_length_c   26.38370000
_cell_angle_alpha   90.00000000
_cell_angle_beta   90.00000000
_cell_angle_gamma   90.00000000
_symmetry_Int_Tables_number   6
_chemical_formula_structural   Li16Al8Rh8CO
_chemical_formula_sum   'Li16 Al8 Rh8 C1 O1'
_cell_volume   1351.59729550
_cell_formula_units_Z   1
loop_
 _symmetry_equiv_pos_site_id
 _symmetry_equiv_pos_as_xyz
  1  'x, y, z'
  2  'x, -y, z'
loop_
 _atom_site_type_symbol
 _atom_site_label
 _atom_site_symmetry_multiplicity
 _atom_site_fract_x
 _atom_site_fract_y
 _atom_site_fract_z
 _atom_site_occupancy
  Li  Li0  2  0.50000000  0.25001000  0.87902000  1.0
  Li  Li1  2  0.50368000  0.24997000  0.03903000  1.0
  Li  Li2  2  0.74606000  0.24788000  0.12600000  1.0
  Li  Li3  2  0.75000000  0.24999000  0.95967000  1.0
  Li  Li4  1  0.00000000  0.00000000  0.95967000  1.0
  Li  Li5  1  0.00000000  0.50000000  0.95967000  1.0
  Li  Li6  1  0.01493000  0.00000000  0.13049000  1.0
  Li  Li7  1  0.01728000  0.50000000  0.13275000  1.0
  Li  Li8  1  0.23473000  0.00000000  0.03739000  1.0
  Li  Li9  1  0.23942000  0.50000000  0.03888000  1.0
  Li  Li10  1  0.25000000  0.00000000  0.87902000  1.0
  Li  Li11  1  0.25000000  0.50000000  0.87902000  1.0
  Al  Al12  2  0.00000000  0.25001000  0.87902000  1.0
  Al  Al13  2  0.99718000  0.25035000  0.04098000  1.0
  Al  Al14  1  0.47706000  0.00000000  0.11482000  1.0
  Al  Al15  1  0.48113000  0.50000000  0.11734000  1.0
  Al  Al16  1  0.50000000  0.00000000  0.95967000  1.0
  Al  Al17  1  0.50000000  0.50000000  0.95967000  1.0
  Rh  Rh18  2  0.25000000  0.25001000  0.95967000  1.0
  Rh  Rh19  2  0.26155000  0.25176000  0.11433000  1.0
  Rh  Rh20  1  0.75000000  0.00000000  0.87902000  1.0
  Rh  Rh21  1  0.75000000  0.50000000  0.87902000  1.0
  Rh  Rh22  1  0.75516000  0.00000000  0.04316000  1.0
  Rh  Rh23  1  0.75580000  0.50000000  0.04490000  1.0
  C  C24  1  0.99198000  0.00000000  0.20859000  1.0
  O  O25  1  0.00126000  0.00000000  0.25189000  1.0
