# generated using pymatgen
data_Mg8Ni16Sb8CO
_symmetry_space_group_name_H-M   'P 1'
_cell_length_a   6.21377000
_cell_length_b   8.78760000
_cell_length_c   26.59070000
_cell_angle_alpha   90.00000000
_cell_angle_beta   90.00000000
_cell_angle_gamma   90.00000000
_symmetry_Int_Tables_number   1
_chemical_formula_structural   Mg8Ni16Sb8CO
_chemical_formula_sum   'Mg8 Ni16 Sb8 C1 O1'
_cell_volume   1451.96191334
_cell_formula_units_Z   1
loop_
 _symmetry_equiv_pos_site_id
 _symmetry_equiv_pos_as_xyz
  1  'x, y, z'
loop_
 _atom_site_type_symbol
 _atom_site_label
 _atom_site_symmetry_multiplicity
 _atom_site_fract_x
 _atom_site_fract_y
 _atom_site_fract_z
 _atom_site_occupancy
  Mg  Mg0  1  0.00000000  0.75000000  0.87607000  1.0
  Mg  Mg1  1  0.50000000  0.00000000  0.95869000  1.0
  Mg  Mg2  1  0.50000000  0.50000000  0.95869000  1.0
  Mg  Mg3  1  0.00000000  0.25000000  0.87607000  1.0
  Mg  Mg4  1  0.00000000  0.24827000  0.03771000  1.0
  Mg  Mg5  1  0.50000000  0.50000000  0.13086000  1.0
  Mg  Mg6  1  0.50000000  0.00000000  0.13227000  1.0
  Mg  Mg7  1  0.00000000  0.75173000  0.03771000  1.0
  Ni  Ni8  1  0.25000000  0.75000000  0.95869000  1.0
  Ni  Ni9  1  0.75000000  0.25000000  0.95869000  1.0
  Ni  Ni10  1  0.75000000  0.75000000  0.95869000  1.0
  Ni  Ni11  1  0.25000000  0.25000000  0.95869000  1.0
  Ni  Ni12  1  0.75000000  0.50000000  0.87607000  1.0
  Ni  Ni13  1  0.25000000  0.00000000  0.87607000  1.0
  Ni  Ni14  1  0.25000000  0.50000000  0.87607000  1.0
  Ni  Ni15  1  0.75000000  0.00000000  0.87607000  1.0
  Ni  Ni16  1  0.23107000  0.25241000  0.11470000  1.0
  Ni  Ni17  1  0.76893000  0.74759000  0.11470000  1.0
  Ni  Ni18  1  0.76893000  0.25241000  0.11470000  1.0
  Ni  Ni19  1  0.23107000  0.74759000  0.11470000  1.0
  Ni  Ni20  1  0.74818000  0.00000000  0.04740000  1.0
  Ni  Ni21  1  0.24490000  0.50000000  0.04565000  1.0
  Ni  Ni22  1  0.25182000  0.00000000  0.04740000  1.0
  Ni  Ni23  1  0.75510000  0.50000000  0.04565000  1.0
  Sb  Sb24  1  0.00000000  0.50000000  0.95869000  1.0
  Sb  Sb25  1  0.50000000  0.75000000  0.87607000  1.0
  Sb  Sb26  1  0.00000000  0.00000000  0.95869000  1.0
  Sb  Sb27  1  0.50000000  0.25000000  0.87607000  1.0
  Sb  Sb28  1  0.00000000  0.00000000  0.13054000  1.0
  Sb  Sb29  1  0.50000000  0.25080000  0.04184000  1.0
  Sb  Sb30  1  0.00000000  0.50000000  0.13144000  1.0
  Sb  Sb31  1  0.50000000  0.74920000  0.04184000  1.0
  C  C32  1  0.50000000  0.00000000  0.21669000  1.0
  O  O33  1  0.50000000  0.00000000  0.25967000  1.0
