# generated using pymatgen
data_Ca12Pb4CO
_symmetry_space_group_name_H-M   P1
_cell_length_a   7.22598000
_cell_length_b   10.21910000
_cell_length_c   25.41950000
_cell_angle_alpha   90.00000000
_cell_angle_beta   90.00000000
_cell_angle_gamma   90.00000000
_symmetry_Int_Tables_number   1
_chemical_formula_structural   Ca12Pb4CO
_chemical_formula_sum   'Ca12 Pb4 C1 O1'
_cell_volume   1877.05244908
_cell_formula_units_Z   1
loop_
 _symmetry_equiv_pos_site_id
 _symmetry_equiv_pos_as_xyz
  1  'x, y, z'
loop_
 _atom_site_type_symbol
 _atom_site_label
 _atom_site_symmetry_multiplicity
 _atom_site_fract_x
 _atom_site_fract_y
 _atom_site_fract_z
 _atom_site_occupancy
  Ca  Ca0  1  0.00300000  0.99969000  0.96773000  1.0
  Ca  Ca1  1  0.00301000  0.50036000  0.96773000  1.0
  Ca  Ca2  1  0.24170000  0.75001000  0.88261000  1.0
  Ca  Ca3  1  0.25000000  0.25000000  0.03553000  1.0
  Ca  Ca4  1  0.25000000  0.75000000  0.03553000  1.0
  Ca  Ca5  1  0.26059000  0.25006000  0.89083000  1.0
  Ca  Ca6  1  0.50000000  -0.00000000  0.10660000  1.0
  Ca  Ca7  1  0.50000000  0.50000000  0.10660000  1.0
  Ca  Ca8  1  0.72423000  0.74991000  0.89668000  1.0
  Ca  Ca9  1  0.74493000  0.25009000  0.89008000  1.0
  Ca  Ca10  1  0.75000000  0.25000000  0.03553000  1.0
  Ca  Ca11  1  0.75000000  0.75000000  0.03553000  1.0
  Pb  Pb12  1  0.00000000  0.00000000  0.10660000  1.0
  Pb  Pb13  1  0.00000000  0.50000000  0.10660000  1.0
  Pb  Pb14  1  0.49747000  0.49745000  0.95655000  1.0
  Pb  Pb15  1  0.49754000  0.00268000  0.95653000  1.0
  C  C16  1  0.74509000  0.74885000  0.79805000  1.0
  O  O17  1  0.75106000  0.74915000  0.75255000  1.0
