data_image0
_chemical_formula_structural       Ta8Ga8Ni16CO
_chemical_formula_sum              "Ta8 Ga8 Ni16 C1 O1"
_cell_length_a       5.98793
_cell_length_b       8.46821
_cell_length_c       26.3512
_cell_angle_alpha    90
_cell_angle_beta     90
_cell_angle_gamma    90

_space_group_name_H-M_alt    "P 1"
_space_group_IT_number       1

loop_
  _space_group_symop_operation_xyz
  'x, y, z'

loop_
  _atom_site_type_symbol
  _atom_site_label
  _atom_site_symmetry_multiplicity
  _atom_site_fract_x
  _atom_site_fract_y
  _atom_site_fract_z
  _atom_site_occupancy
  Ta  Ta1       1.0  0.00000  0.00000  0.87949  1.0000
  Ta  Ta2       1.0  0.50000  0.25000  0.95983  1.0000
  Ta  Ta3       1.0  0.50000  0.75000  0.95983  1.0000
  Ta  Ta4       1.0  0.00000  0.50000  0.87949  1.0000
  Ta  Ta5       1.0  0.99313  0.50001  0.04094  1.0000
  Ta  Ta6       1.0  0.48669  0.75438  0.11876  1.0000
  Ta  Ta7       1.0  0.48666  0.24560  0.11876  1.0000
  Ta  Ta8       1.0  0.00908  0.00002  0.04236  1.0000
  Ga  Ga1       1.0  0.00000  0.75000  0.95983  1.0000
  Ga  Ga2       1.0  0.50000  0.00000  0.87949  1.0000
  Ga  Ga3       1.0  0.00000  0.25000  0.95983  1.0000
  Ga  Ga4       1.0  0.50000  0.50000  0.87949  1.0000
  Ga  Ga5       1.0  0.99302  0.25539  0.12305  1.0000
  Ga  Ga6       1.0  0.49977  0.50004  0.03753  1.0000
  Ga  Ga7       1.0  0.99299  0.74460  0.12305  1.0000
  Ga  Ga8       1.0  0.49349  0.99999  0.04049  1.0000
  Ni  Ni1       1.0  0.25000  0.00000  0.95983  1.0000
  Ni  Ni2       1.0  0.75000  0.50000  0.95983  1.0000
  Ni  Ni3       1.0  0.75000  0.00000  0.95983  1.0000
  Ni  Ni4       1.0  0.25000  0.50000  0.95983  1.0000
  Ni  Ni5       1.0  0.75000  0.75000  0.87949  1.0000
  Ni  Ni6       1.0  0.25000  0.25000  0.87949  1.0000
  Ni  Ni7       1.0  0.25000  0.75000  0.87949  1.0000
  Ni  Ni8       1.0  0.75000  0.25000  0.87949  1.0000
  Ni  Ni9       1.0  0.26260  0.50000  0.11536  1.0000
  Ni  Ni10      1.0  0.74710  0.00001  0.11528  1.0000
  Ni  Ni11      1.0  0.72356  0.49997  0.11662  1.0000
  Ni  Ni12      1.0  0.23237  0.99998  0.13542  1.0000
  Ni  Ni13      1.0  0.74504  0.24659  0.04173  1.0000
  Ni  Ni14      1.0  0.25196  0.74474  0.04045  1.0000
  Ni  Ni15      1.0  0.25205  0.25531  0.04043  1.0000
  Ni  Ni16      1.0  0.74514  0.75344  0.04172  1.0000
  C   C1        1.0  0.31899  0.99992  0.19941  1.0000
  O   O1        1.0  0.36024  0.99995  0.24241  1.0000
