# generated using pymatgen
data_Ta8Ga8Ni16CO
_symmetry_space_group_name_H-M   P1
_cell_length_a   5.98793000
_cell_length_b   8.46821000
_cell_length_c   26.35120000
_cell_angle_alpha   90.00000000
_cell_angle_beta   90.00000000
_cell_angle_gamma   90.00000000
_symmetry_Int_Tables_number   1
_chemical_formula_structural   Ta8Ga8Ni16CO
_chemical_formula_sum   'Ta8 Ga8 Ni16 C1 O1'
_cell_volume   1336.19158184
_cell_formula_units_Z   1
loop_
 _symmetry_equiv_pos_site_id
 _symmetry_equiv_pos_as_xyz
  1  'x, y, z'
loop_
 _atom_site_type_symbol
 _atom_site_label
 _atom_site_symmetry_multiplicity
 _atom_site_fract_x
 _atom_site_fract_y
 _atom_site_fract_z
 _atom_site_occupancy
  Ta  Ta0  1  0.00000000  0.00000000  0.87949000  1.0
  Ta  Ta1  1  0.00000000  0.50000000  0.87949000  1.0
  Ta  Ta2  1  0.00908000  0.00002000  0.04236000  1.0
  Ta  Ta3  1  0.48666000  0.24560000  0.11876000  1.0
  Ta  Ta4  1  0.48669000  0.75438000  0.11876000  1.0
  Ta  Ta5  1  0.50000000  0.25000000  0.95983000  1.0
  Ta  Ta6  1  0.50000000  0.75000000  0.95983000  1.0
  Ta  Ta7  1  0.99313000  0.50001000  0.04094000  1.0
  Ga  Ga8  1  -0.00000000  0.25000000  0.95983000  1.0
  Ga  Ga9  1  -0.00000000  0.75000000  0.95983000  1.0
  Ga  Ga10  1  0.49349000  0.99999000  0.04049000  1.0
  Ga  Ga11  1  0.49977000  0.50004000  0.03753000  1.0
  Ga  Ga12  1  0.50000000  0.00000000  0.87949000  1.0
  Ga  Ga13  1  0.50000000  0.50000000  0.87949000  1.0
  Ga  Ga14  1  0.99299000  0.74460000  0.12305000  1.0
  Ga  Ga15  1  0.99302000  0.25539000  0.12305000  1.0
  Ni  Ni16  1  0.23237000  0.99998000  0.13542000  1.0
  Ni  Ni17  1  0.25000000  0.00000000  0.95983000  1.0
  Ni  Ni18  1  0.25000000  0.25000000  0.87949000  1.0
  Ni  Ni19  1  0.25000000  0.50000000  0.95983000  1.0
  Ni  Ni20  1  0.25000000  0.75000000  0.87949000  1.0
  Ni  Ni21  1  0.25196000  0.74474000  0.04045000  1.0
  Ni  Ni22  1  0.25205000  0.25531000  0.04043000  1.0
  Ni  Ni23  1  0.26260000  0.50000000  0.11536000  1.0
  Ni  Ni24  1  0.72356000  0.49997000  0.11662000  1.0
  Ni  Ni25  1  0.74504000  0.24659000  0.04173000  1.0
  Ni  Ni26  1  0.74514000  0.75344000  0.04172000  1.0
  Ni  Ni27  1  0.74710000  0.00001000  0.11528000  1.0
  Ni  Ni28  1  0.75000000  0.00000000  0.95983000  1.0
  Ni  Ni29  1  0.75000000  0.25000000  0.87949000  1.0
  Ni  Ni30  1  0.75000000  0.50000000  0.95983000  1.0
  Ni  Ni31  1  0.75000000  0.75000000  0.87949000  1.0
  C  C32  1  0.31899000  0.99992000  0.19941000  1.0
  O  O33  1  0.36024000  0.99995000  0.24241000  1.0
