# generated using pymatgen
data_Li8Y8In8Pd8CO
_symmetry_space_group_name_H-M   'P 1'
_cell_length_a   9.63982000
_cell_length_b   6.81638000
_cell_length_c   27.22990000
_cell_angle_alpha   90.00000000
_cell_angle_beta   90.00000000
_cell_angle_gamma   90.00000000
_symmetry_Int_Tables_number   1
_chemical_formula_structural   Li8Y8In8Pd8CO
_chemical_formula_sum   'Li8 Y8 In8 Pd8 C1 O1'
_cell_volume   1789.24068346
_cell_formula_units_Z   1
loop_
 _symmetry_equiv_pos_site_id
 _symmetry_equiv_pos_as_xyz
  1  'x, y, z'
loop_
 _atom_site_type_symbol
 _atom_site_label
 _atom_site_symmetry_multiplicity
 _atom_site_fract_x
 _atom_site_fract_y
 _atom_site_fract_z
 _atom_site_occupancy
  Li  Li0  1  0.75003000  0.75000000  0.04425000  1.0
  Li  Li1  1  0.24997000  0.75000000  0.04425000  1.0
  Li  Li2  1  0.00000000  0.25000000  0.13276000  1.0
  Li  Li3  1  0.50000000  0.25000000  0.13276000  1.0
  Li  Li4  1  0.24742000  0.56195000  0.81434000  1.0
  Li  Li5  1  0.75258000  0.56195000  0.81434000  1.0
  Li  Li6  1  0.50000000  0.24524000  0.95289000  1.0
  Li  Li7  1  0.00000000  0.23492000  0.95259000  1.0
  Y  Y8  1  0.00000000  0.00000000  0.04425000  1.0
  Y  Y9  1  0.50000000  0.00000000  0.04425000  1.0
  Y  Y10  1  0.25003000  0.50000000  0.13276000  1.0
  Y  Y11  1  0.74997000  0.50000000  0.13276000  1.0
  Y  Y12  1  0.50000000  0.94559000  0.86977000  1.0
  Y  Y13  1  0.00000000  0.94191000  0.86680000  1.0
  Y  Y14  1  0.75091000  0.51342000  0.94703000  1.0
  Y  Y15  1  0.24909000  0.51342000  0.94703000  1.0
  In  In16  1  0.75003000  0.00000000  0.13276000  1.0
  In  In17  1  0.24997000  0.00000000  0.13276000  1.0
  In  In18  1  0.50000000  0.50000000  0.04425000  1.0
  In  In19  1  0.00000000  0.50000000  0.04425000  1.0
  In  In20  1  0.24979000  0.99708000  0.95748000  1.0
  In  In21  1  0.75021000  0.99708000  0.95748000  1.0
  In  In22  1  0.00000000  0.45820000  0.86371000  1.0
  In  In23  1  0.50000000  0.45831000  0.86156000  1.0
  Pd  Pd24  1  0.75003000  0.25000000  0.04425000  1.0
  Pd  Pd25  1  0.24997000  0.25000000  0.04425000  1.0
  Pd  Pd26  1  0.00000000  0.75000000  0.13276000  1.0
  Pd  Pd27  1  0.50000000  0.75000000  0.13276000  1.0
  Pd  Pd28  1  0.25173000  0.22525000  0.87314000  1.0
  Pd  Pd29  1  0.74827000  0.22525000  0.87314000  1.0
  Pd  Pd30  1  0.50000000  0.74554000  0.95893000  1.0
  Pd  Pd31  1  0.00000000  0.74511000  0.96006000  1.0
  C  C32  1  0.00000000  0.85779000  0.77915000  1.0
  O  O33  1  0.00000000  0.83526000  0.73678000  1.0
