# generated using pymatgen
data_Li8Ga16Pt8C
_symmetry_space_group_name_H-M   Pmm2
_cell_length_a   6.22326000
_cell_length_b   8.80102000
_cell_length_c   26.60080000
_cell_angle_alpha   90.00000000
_cell_angle_beta   90.00000000
_cell_angle_gamma   90.00000000
_symmetry_Int_Tables_number   25
_chemical_formula_structural   Li8Ga16Pt8C
_chemical_formula_sum   'Li8 Ga16 Pt8 C1'
_cell_volume   1456.95336712
_cell_formula_units_Z   1
loop_
 _symmetry_equiv_pos_site_id
 _symmetry_equiv_pos_as_xyz
  1  'x, y, z'
  2  '-x, -y, z'
  3  '-x, y, z'
  4  'x, -y, z'
loop_
 _atom_site_type_symbol
 _atom_site_label
 _atom_site_symmetry_multiplicity
 _atom_site_fract_x
 _atom_site_fract_y
 _atom_site_fract_z
 _atom_site_occupancy
  Li  Li0  2  0.50000000  0.24325000  0.13828000  1.0
  Li  Li1  2  0.50000000  0.25000000  0.95864000  1.0
  Li  Li2  1  0.00000000  0.00000000  0.04225000  1.0
  Li  Li3  1  0.00000000  0.00000000  0.87593000  1.0
  Li  Li4  1  0.00000000  0.50000000  0.04488000  1.0
  Li  Li5  1  0.00000000  0.50000000  0.87593000  1.0
  Ga  Ga6  4  0.25000000  0.25000000  0.87593000  1.0
  Ga  Ga7  4  0.25965000  0.25360000  0.04412000  1.0
  Ga  Ga8  2  0.20426000  0.00000000  0.14063000  1.0
  Ga  Ga9  2  0.24358000  0.50000000  0.13557000  1.0
  Ga  Ga10  2  0.25000000  0.00000000  0.95864000  1.0
  Ga  Ga11  2  0.25000000  0.50000000  0.95864000  1.0
  Pt  Pt12  2  0.00000000  0.25000000  0.95864000  1.0
  Pt  Pt13  2  0.00000000  0.25412000  0.11873000  1.0
  Pt  Pt14  1  0.50000000  0.00000000  0.03862000  1.0
  Pt  Pt15  1  0.50000000  0.00000000  0.87593000  1.0
  Pt  Pt16  1  0.50000000  0.50000000  0.03739000  1.0
  Pt  Pt17  1  0.50000000  0.50000000  0.87593000  1.0
  C  C18  1  0.50000000  0.00000000  0.12184000  1.0
