# generated using pymatgen
data_Li16Sb8Pd8C
_symmetry_space_group_name_H-M   'P 1'
_cell_length_a   9.09870000
_cell_length_b   6.43375000
_cell_length_c   26.82400000
_cell_angle_alpha   90.00000000
_cell_angle_beta   90.00000000
_cell_angle_gamma   90.00000000
_symmetry_Int_Tables_number   1
_chemical_formula_structural   Li16Sb8Pd8C
_chemical_formula_sum   'Li16 Sb8 Pd8 C1'
_cell_volume   1570.24372842
_cell_formula_units_Z   1
loop_
 _symmetry_equiv_pos_site_id
 _symmetry_equiv_pos_as_xyz
  1  'x, y, z'
loop_
 _atom_site_type_symbol
 _atom_site_label
 _atom_site_symmetry_multiplicity
 _atom_site_fract_x
 _atom_site_fract_y
 _atom_site_fract_z
 _atom_site_occupancy
  Li  Li0  1  0.75000000  1.00000000  0.04240000  1.0
  Li  Li1  1  0.00000000  0.50000000  0.12720000  1.0
  Li  Li2  1  0.25000000  1.00000000  0.04240000  1.0
  Li  Li3  1  0.50000000  0.50000000  0.12720000  1.0
  Li  Li4  1  0.25000000  0.25000000  0.12720000  1.0
  Li  Li5  1  0.75000000  0.25000000  0.12720000  1.0
  Li  Li6  1  0.50000000  0.75000000  0.04240000  1.0
  Li  Li7  1  0.00000000  0.75000000  0.04240000  1.0
  Li  Li8  1  0.23611000  0.03395000  0.86951000  1.0
  Li  Li9  1  0.50000000  0.51206000  0.96072000  1.0
  Li  Li10  1  0.76389000  0.03395000  0.86951000  1.0
  Li  Li11  1  0.00000000  0.51238000  0.95479000  1.0
  Li  Li12  1  0.75105000  0.27218000  0.95286000  1.0
  Li  Li13  1  0.24895000  0.27218000  0.95286000  1.0
  Li  Li14  1  0.00000000  0.75194000  0.85399000  1.0
  Li  Li15  1  0.50000000  0.76254000  0.87225000  1.0
  Sb  Sb16  1  0.00000000  0.00000000  0.12720000  1.0
  Sb  Sb17  1  0.25000000  0.50000000  0.04240000  1.0
  Sb  Sb18  1  0.75000000  0.50000000  0.04240000  1.0
  Sb  Sb19  1  0.50000000  1.00000000  0.12720000  1.0
  Sb  Sb20  1  0.50000000  0.00274000  0.95810000  1.0
  Sb  Sb21  1  0.73930000  0.51795000  0.86405000  1.0
  Sb  Sb22  1  0.26070000  0.51795000  0.86405000  1.0
  Sb  Sb23  1  0.00000000  0.97914000  0.96213000  1.0
  Pd  Pd24  1  0.00000000  0.25000000  0.04240000  1.0
  Pd  Pd25  1  0.50000000  0.25000000  0.04240000  1.0
  Pd  Pd26  1  0.75000000  0.75000000  0.12720000  1.0
  Pd  Pd27  1  0.25000000  0.75000000  0.12720000  1.0
  Pd  Pd28  1  0.50000000  0.26974000  0.88344000  1.0
  Pd  Pd29  1  0.00000000  0.33145000  0.86470000  1.0
  Pd  Pd30  1  0.25460000  0.74386000  0.95455000  1.0
  Pd  Pd31  1  0.74540000  0.74386000  0.95455000  1.0
  C  C32  1  0.00000000  0.04428000  0.88508000  1.0
