# generated using pymatgen
data_Li16Sb8Pd8C
_symmetry_space_group_name_H-M   Pm
_cell_length_a   6.43375000
_cell_length_b   9.09870000
_cell_length_c   26.82400000
_cell_angle_alpha   90.00000000
_cell_angle_beta   90.00000000
_cell_angle_gamma   90.00000000
_symmetry_Int_Tables_number   6
_chemical_formula_structural   Li16Sb8Pd8C
_chemical_formula_sum   'Li16 Sb8 Pd8 C1'
_cell_volume   1570.24372842
_cell_formula_units_Z   1
loop_
 _symmetry_equiv_pos_site_id
 _symmetry_equiv_pos_as_xyz
  1  'x, y, z'
  2  'x, -y, z'
loop_
 _atom_site_type_symbol
 _atom_site_label
 _atom_site_symmetry_multiplicity
 _atom_site_fract_x
 _atom_site_fract_y
 _atom_site_fract_z
 _atom_site_occupancy
  Li  Li0  2  -0.00000000  0.25000000  0.95760000  1.0
  Li  Li1  2  0.03395000  0.23611000  0.13049000  1.0
  Li  Li2  2  0.25000000  0.25000000  0.87280000  1.0
  Li  Li3  2  0.27218000  0.24895000  0.04714000  1.0
  Li  Li4  1  0.50000000  0.00000000  0.87280000  1.0
  Li  Li5  1  0.50000000  0.50000000  0.87280000  1.0
  Li  Li6  1  0.51206000  0.50000000  0.03928000  1.0
  Li  Li7  1  0.51238000  0.00000000  0.04521000  1.0
  Li  Li8  1  0.75000000  0.00000000  0.95760000  1.0
  Li  Li9  1  0.75000000  0.50000000  0.95760000  1.0
  Li  Li10  1  0.75194000  0.00000000  0.14601000  1.0
  Li  Li11  1  0.76254000  0.50000000  0.12775000  1.0
  Sb  Sb12  2  0.50000000  0.25000000  0.95760000  1.0
  Sb  Sb13  2  0.51795000  0.26070000  0.13595000  1.0
  Sb  Sb14  1  -0.00000000  0.50000000  0.87280000  1.0
  Sb  Sb15  1  0.00000000  0.00000000  0.87280000  1.0
  Sb  Sb16  1  0.00274000  0.50000000  0.04190000  1.0
  Sb  Sb17  1  0.97914000  0.00000000  0.03787000  1.0
  Pd  Pd18  2  0.74386000  0.25460000  0.04545000  1.0
  Pd  Pd19  2  0.75000000  0.25000000  0.87280000  1.0
  Pd  Pd20  1  0.25000000  0.00000000  0.95760000  1.0
  Pd  Pd21  1  0.25000000  0.50000000  0.95760000  1.0
  Pd  Pd22  1  0.26974000  0.50000000  0.11656000  1.0
  Pd  Pd23  1  0.33145000  0.00000000  0.13530000  1.0
  C  C24  1  0.04428000  0.00000000  0.11492000  1.0
