data_image0
_chemical_formula_structural       VIr3VIr3VIr3VIr3VIr3VIr3VIr3VIr3C
_chemical_formula_sum              "V8 Ir24 C1"
_cell_length_a       7.70199
_cell_length_b       7.70199
_cell_length_c       25.7765
_cell_angle_alpha    90
_cell_angle_beta     90
_cell_angle_gamma    90

_space_group_name_H-M_alt    "P 1"
_space_group_IT_number       1

loop_
  _space_group_symop_operation_xyz
  'x, y, z'

loop_
  _atom_site_type_symbol
  _atom_site_label
  _atom_site_symmetry_multiplicity
  _atom_site_fract_x
  _atom_site_fract_y
  _atom_site_fract_z
  _atom_site_occupancy
  V   V1        1.0  0.00000  0.00000  0.88795  1.0000
  Ir  Ir1       1.0  0.00000  0.25000  0.96265  1.0000
  Ir  Ir2       1.0  0.25000  0.00000  0.96265  1.0000
  Ir  Ir3       1.0  0.25000  0.25000  0.88795  1.0000
  V   V2        1.0  0.00000  0.00000  0.03735  1.0000
  Ir  Ir4       1.0  0.00000  0.25000  0.11205  1.0000
  Ir  Ir5       1.0  0.25000  0.00000  0.11205  1.0000
  Ir  Ir6       1.0  0.25000  0.25000  0.03735  1.0000
  V   V3        1.0  0.00000  0.50000  0.88795  1.0000
  Ir  Ir7       1.0  0.00000  0.75000  0.96265  1.0000
  Ir  Ir8       1.0  0.25000  0.50000  0.96265  1.0000
  Ir  Ir9       1.0  0.25000  0.75000  0.88795  1.0000
  V   V4        1.0  0.00000  0.50000  0.03735  1.0000
  Ir  Ir10      1.0  0.00000  0.75000  0.11205  1.0000
  Ir  Ir11      1.0  0.25000  0.50000  0.11205  1.0000
  Ir  Ir12      1.0  0.25000  0.75000  0.03735  1.0000
  V   V5        1.0  0.50000  0.00000  0.88795  1.0000
  Ir  Ir13      1.0  0.50000  0.25000  0.96265  1.0000
  Ir  Ir14      1.0  0.75000  0.00000  0.96265  1.0000
  Ir  Ir15      1.0  0.75000  0.25000  0.88795  1.0000
  V   V6        1.0  0.50000  0.00000  0.03735  1.0000
  Ir  Ir16      1.0  0.50000  0.25000  0.11205  1.0000
  Ir  Ir17      1.0  0.75000  0.00000  0.11205  1.0000
  Ir  Ir18      1.0  0.75000  0.25000  0.03735  1.0000
  V   V7        1.0  0.50000  0.50000  0.88795  1.0000
  Ir  Ir19      1.0  0.50000  0.75000  0.96265  1.0000
  Ir  Ir20      1.0  0.75000  0.50000  0.96265  1.0000
  Ir  Ir21      1.0  0.75000  0.75000  0.88795  1.0000
  V   V8        1.0  0.50000  0.50000  0.03735  1.0000
  Ir  Ir22      1.0  0.50000  0.75000  0.11205  1.0000
  Ir  Ir23      1.0  0.75000  0.50000  0.11205  1.0000
  Ir  Ir24      1.0  0.75000  0.75000  0.03735  1.0000
  C   C1        1.0  0.00000  0.00000  0.14309  1.0000
