# generated using pymatgen
data_Li16Pd16CO
_symmetry_space_group_name_H-M   'P 1'
_cell_length_a   6.06651000
_cell_length_b   8.57934000
_cell_length_c   26.43450000
_cell_angle_alpha   90.00000000
_cell_angle_beta   90.00000000
_cell_angle_gamma   90.00000000
_symmetry_Int_Tables_number   1
_chemical_formula_structural   Li16Pd16CO
_chemical_formula_sum   'Li16 Pd16 C1 O1'
_cell_volume   1375.82721974
_cell_formula_units_Z   1
loop_
 _symmetry_equiv_pos_site_id
 _symmetry_equiv_pos_as_xyz
  1  'x, y, z'
loop_
 _atom_site_type_symbol
 _atom_site_label
 _atom_site_symmetry_multiplicity
 _atom_site_fract_x
 _atom_site_fract_y
 _atom_site_fract_z
 _atom_site_occupancy
  Li  Li0  1  0.00000000  0.75000000  0.87829000  1.0
  Li  Li1  1  0.00000000  0.00000000  0.95943000  1.0
  Li  Li2  1  0.00000000  0.74965000  0.03904000  1.0
  Li  Li3  1  0.00000000  0.00000000  0.12410000  1.0
  Li  Li4  1  0.00000000  0.25000000  0.87829000  1.0
  Li  Li5  1  0.00000000  0.50000000  0.95943000  1.0
  Li  Li6  1  0.00000000  0.25035000  0.03904000  1.0
  Li  Li7  1  0.00000000  0.50000000  0.12674000  1.0
  Li  Li8  1  0.50000000  0.75000000  0.87829000  1.0
  Li  Li9  1  0.50000000  0.00000000  0.95943000  1.0
  Li  Li10  1  0.50000000  0.74996000  0.03892000  1.0
  Li  Li11  1  0.50000000  0.00000000  0.12571000  1.0
  Li  Li12  1  0.50000000  0.25000000  0.87829000  1.0
  Li  Li13  1  0.50000000  0.50000000  0.95943000  1.0
  Li  Li14  1  0.50000000  0.25004000  0.03892000  1.0
  Li  Li15  1  0.50000000  0.50000000  0.12812000  1.0
  Pd  Pd16  1  0.25000000  0.00000000  0.87829000  1.0
  Pd  Pd17  1  0.25000000  0.75000000  0.95943000  1.0
  Pd  Pd18  1  0.25059000  0.00000000  0.04096000  1.0
  Pd  Pd19  1  0.25251000  0.74797000  0.11689000  1.0
  Pd  Pd20  1  0.25000000  0.50000000  0.87829000  1.0
  Pd  Pd21  1  0.25000000  0.25000000  0.95943000  1.0
  Pd  Pd22  1  0.25043000  0.50000000  0.04165000  1.0
  Pd  Pd23  1  0.25251000  0.25203000  0.11689000  1.0
  Pd  Pd24  1  0.75000000  0.00000000  0.87829000  1.0
  Pd  Pd25  1  0.75000000  0.75000000  0.95943000  1.0
  Pd  Pd26  1  0.74941000  0.00000000  0.04096000  1.0
  Pd  Pd27  1  0.74749000  0.74797000  0.11689000  1.0
  Pd  Pd28  1  0.75000000  0.50000000  0.87829000  1.0
  Pd  Pd29  1  0.75000000  0.25000000  0.95943000  1.0
  Pd  Pd30  1  0.74957000  0.50000000  0.04165000  1.0
  Pd  Pd31  1  0.74749000  0.25203000  0.11689000  1.0
  C  C32  1  0.00000000  0.00000000  0.20323000  1.0
  O  O33  1  0.00000000  0.00000000  0.24642000  1.0
