data_image0
_chemical_formula_structural       Li4Ag4Ge4Pd4CO
_chemical_formula_sum              "Li4 Ag4 Ge4 Pd4 C1 O1"
_cell_length_a       6.28256
_cell_length_b       6.28256
_cell_length_c       24.7119
_cell_angle_alpha    90
_cell_angle_beta     90
_cell_angle_gamma    90

_space_group_name_H-M_alt    "P 1"
_space_group_IT_number       1

loop_
  _space_group_symop_operation_xyz
  'x, y, z'

loop_
  _atom_site_type_symbol
  _atom_site_label
  _atom_site_symmetry_multiplicity
  _atom_site_fract_x
  _atom_site_fract_y
  _atom_site_fract_z
  _atom_site_occupancy
  Li  Li1       1.0  0.25000  0.25000  0.96822  1.0000
  Li  Li2       1.0  0.24879  0.75124  0.10330  1.0000
  Li  Li3       1.0  0.75030  0.24968  0.10498  1.0000
  Li  Li4       1.0  0.75000  0.75000  0.96822  1.0000
  Ag  Ag1       1.0  0.00000  0.00000  0.90466  1.0000
  Ag  Ag2       1.0  0.99949  0.49936  0.03425  1.0000
  Ag  Ag3       1.0  0.50064  0.00051  0.03425  1.0000
  Ag  Ag4       1.0  0.50000  0.50000  0.90466  1.0000
  Ge  Ge1       1.0  0.75000  0.25000  0.96822  1.0000
  Ge  Ge2       1.0  0.75024  0.75023  0.09420  1.0000
  Ge  Ge3       1.0  0.24978  0.24975  0.09419  1.0000
  Ge  Ge4       1.0  0.25000  0.75000  0.96822  1.0000
  Pd  Pd1       1.0  0.00000  0.50000  0.90466  1.0000
  Pd  Pd2       1.0  0.00066  0.99934  0.03778  1.0000
  Pd  Pd3       1.0  0.49941  0.50059  0.03804  1.0000
  Pd  Pd4       1.0  0.50000  0.00000  0.90466  1.0000
  C   C1        1.0  0.75183  0.24818  0.19054  1.0000
  O   O1        1.0  0.75211  0.24791  0.23660  1.0000
