# generated using pymatgen
data_Li4Ag4Ge4Pd4CO
_symmetry_space_group_name_H-M   Cm
_cell_length_a   8.88488156
_cell_length_b   8.88488156
_cell_length_c   24.71190000
_cell_angle_alpha   90.00000000
_cell_angle_beta   90.00000000
_cell_angle_gamma   90.00000000
_symmetry_Int_Tables_number   8
_chemical_formula_structural   Li4Ag4Ge4Pd4CO
_chemical_formula_sum   'Li8 Ag8 Ge8 Pd8 C2 O2'
_cell_volume   1950.78507092
_cell_formula_units_Z   2
loop_
 _symmetry_equiv_pos_site_id
 _symmetry_equiv_pos_as_xyz
  1  'x, y, z'
  2  'x, -y, z'
  3  'x+1/2, y+1/2, z'
  4  'x+1/2, -y+1/2, z'
loop_
 _atom_site_type_symbol
 _atom_site_label
 _atom_site_symmetry_multiplicity
 _atom_site_fract_x
 _atom_site_fract_y
 _atom_site_fract_z
 _atom_site_occupancy
  Li  Li0  4  0.00000500  0.24999500  0.96822000  1.0
  Li  Li1  2  0.24878000  0.00000000  0.10330000  1.0
  Li  Li2  2  0.25031500  0.50000000  0.10498000  1.0
  Ag  Ag3  4  0.25007000  0.25058000  0.03425000  1.0
  Ag  Ag4  2  0.00000500  0.00000000  0.90466000  1.0
  Ag  Ag5  2  0.00000500  0.50000000  0.90466000  1.0
  Ge  Ge6  4  0.00001000  0.24977000  0.09420000  1.0
  Ge  Ge7  2  0.25000500  0.00000000  0.96822000  1.0
  Ge  Ge8  2  0.25000500  0.50000000  0.96822000  1.0
  Pd  Pd9  4  0.25000500  0.25000500  0.90466000  1.0
  Pd  Pd10  2  0.00066500  0.00000000  0.03778000  1.0
  Pd  Pd11  2  0.49941500  0.00000000  0.03804000  1.0
  C  C12  2  0.25183000  0.50000000  0.19054000  1.0
  O  O13  2  0.25210500  0.50000000  0.23660000  1.0
