# generated using pymatgen
data_MnInNi2
_symmetry_space_group_name_H-M   'P 1'
_cell_length_a   4.32352500
_cell_length_b   6.11439000
_cell_length_c   26.48530000
_cell_angle_alpha   90.00000000
_cell_angle_beta   90.00000000
_cell_angle_gamma   90.00000000
_symmetry_Int_Tables_number   1
_chemical_formula_structural   MnInNi2
_chemical_formula_sum   'Mn4 In4 Ni8'
_cell_volume   700.15792260
_cell_formula_units_Z   4
loop_
 _symmetry_equiv_pos_site_id
 _symmetry_equiv_pos_as_xyz
  1  'x, y, z'
loop_
 _atom_site_type_symbol
 _atom_site_label
 _atom_site_symmetry_multiplicity
 _atom_site_fract_x
 _atom_site_fract_y
 _atom_site_fract_z
 _atom_site_occupancy
  Mn  Mn0  1  0.00000000  0.00000000  0.12243000  1.0
  Mn  Mn1  1  0.50000000  0.50000000  0.04081000  1.0
  Mn  Mn2  1  0.00000000  0.00000000  0.96015000  1.0
  Mn  Mn3  1  0.50000000  0.50000000  0.88004000  1.0
  In  In4  1  0.50000000  0.00000000  0.04081000  1.0
  In  In5  1  0.00000000  0.50000000  0.12243000  1.0
  In  In6  1  0.50000000  0.00000000  0.86478000  1.0
  In  In7  1  0.00000000  0.50000000  0.96061000  1.0
  Ni  Ni8  1  0.00000000  0.75000000  0.04081000  1.0
  Ni  Ni9  1  0.00000000  0.25000000  0.04081000  1.0
  Ni  Ni10  1  0.50000000  0.25000000  0.12243000  1.0
  Ni  Ni11  1  0.50000000  0.75000000  0.12243000  1.0
  Ni  Ni12  1  0.00000000  0.76283000  0.88379000  1.0
  Ni  Ni13  1  0.00000000  0.23717000  0.88379000  1.0
  Ni  Ni14  1  0.50000000  0.23688000  0.95634500  1.0
  Ni  Ni15  1  0.50000000  0.76312000  0.95634500  1.0
