# generated using pymatgen
data_In8Ag24CO
_symmetry_space_group_name_H-M   Pmm2
_cell_length_a   8.59601000
_cell_length_b   8.59601000
_cell_length_c   26.44700000
_cell_angle_alpha   90.00000000
_cell_angle_beta   90.00000000
_cell_angle_gamma   90.00000000
_symmetry_Int_Tables_number   25
_chemical_formula_structural   In8Ag24CO
_chemical_formula_sum   'In8 Ag24 C1 O1'
_cell_volume   1954.20553632
_cell_formula_units_Z   1
loop_
 _symmetry_equiv_pos_site_id
 _symmetry_equiv_pos_as_xyz
  1  'x, y, z'
  2  '-x, -y, z'
  3  '-x, y, z'
  4  'x, -y, z'
loop_
 _atom_site_type_symbol
 _atom_site_label
 _atom_site_symmetry_multiplicity
 _atom_site_fract_x
 _atom_site_fract_y
 _atom_site_fract_z
 _atom_site_occupancy
  In  In0  2  0.25000000  0.00000000  0.04063000  1.0
  In  In1  2  0.25000000  0.00000000  0.87811000  1.0
  In  In2  2  0.25000000  0.50000000  0.04063000  1.0
  In  In3  2  0.25000000  0.50000000  0.87811000  1.0
  Ag  Ag4  4  0.25000000  0.25000000  0.12189000  1.0
  Ag  Ag5  4  0.25000000  0.25000000  0.95937000  1.0
  Ag  Ag6  2  0.00000000  0.25000000  0.04063000  1.0
  Ag  Ag7  2  0.00000000  0.25000000  0.87811000  1.0
  Ag  Ag8  2  0.50000000  0.25000000  0.04063000  1.0
  Ag  Ag9  2  0.50000000  0.25000000  0.87811000  1.0
  Ag  Ag10  1  0.00000000  0.00000000  0.12189000  1.0
  Ag  Ag11  1  0.00000000  0.00000000  0.95937000  1.0
  Ag  Ag12  1  0.00000000  0.50000000  0.12189000  1.0
  Ag  Ag13  1  0.00000000  0.50000000  0.95937000  1.0
  Ag  Ag14  1  0.50000000  0.00000000  0.12189000  1.0
  Ag  Ag15  1  0.50000000  0.00000000  0.95937000  1.0
  Ag  Ag16  1  0.50000000  0.50000000  0.12189000  1.0
  Ag  Ag17  1  0.50000000  0.50000000  0.95937000  1.0
  C  C18  1  0.00000000  0.00000000  0.19373000  1.0
  O  O19  1  0.00000000  0.00000000  0.23721000  1.0
