# generated using pymatgen
data_Li8Al8Cu8Pd8CO
_symmetry_space_group_name_H-M   'P 1'
_cell_length_a   8.49706000
_cell_length_b   6.00833000
_cell_length_c   26.37280000
_cell_angle_alpha   90.00000000
_cell_angle_beta   90.00000000
_cell_angle_gamma   90.00000000
_symmetry_Int_Tables_number   1
_chemical_formula_structural   Li8Al8Cu8Pd8CO
_chemical_formula_sum   'Li8 Al8 Cu8 Pd8 C1 O1'
_cell_volume   1346.41426404
_cell_formula_units_Z   1
loop_
 _symmetry_equiv_pos_site_id
 _symmetry_equiv_pos_as_xyz
  1  'x, y, z'
loop_
 _atom_site_type_symbol
 _atom_site_label
 _atom_site_symmetry_multiplicity
 _atom_site_fract_x
 _atom_site_fract_y
 _atom_site_fract_z
 _atom_site_occupancy
  Li  Li0  1  0.00000000  0.00000000  0.04027000  1.0
  Li  Li1  1  0.50000000  0.00000000  0.04027000  1.0
  Li  Li2  1  0.25000000  0.50000000  0.12082000  1.0
  Li  Li3  1  0.75000000  0.50000000  0.12082000  1.0
  Li  Li4  1  0.50000000  0.00496000  0.86901000  1.0
  Li  Li5  1  0.00000000  0.00090000  0.87008000  1.0
  Li  Li6  1  0.75050000  0.50145000  0.96265000  1.0
  Li  Li7  1  0.24950000  0.50145000  0.96265000  1.0
  Al  Al8  1  0.75000000  0.00000000  0.12082000  1.0
  Al  Al9  1  0.25000000  0.00000000  0.12082000  1.0
  Al  Al10  1  0.50000000  0.50000000  0.04027000  1.0
  Al  Al11  1  0.00000000  0.50000000  0.04027000  1.0
  Al  Al12  1  0.24936000  0.99960000  0.96077000  1.0
  Al  Al13  1  0.75064000  0.99960000  0.96077000  1.0
  Al  Al14  1  0.00000000  0.50476000  0.87915000  1.0
  Al  Al15  1  0.50000000  0.50372000  0.88210000  1.0
  Cu  Cu16  1  0.75000000  0.25000000  0.04027000  1.0
  Cu  Cu17  1  0.25000000  0.25000000  0.04027000  1.0
  Cu  Cu18  1  0.00000000  0.75000000  0.12082000  1.0
  Cu  Cu19  1  0.50000000  0.75000000  0.12082000  1.0
  Cu  Cu20  1  0.25198000  0.26621000  0.88598000  1.0
  Cu  Cu21  1  0.74802000  0.26621000  0.88598000  1.0
  Cu  Cu22  1  0.50000000  0.75644000  0.96102000  1.0
  Cu  Cu23  1  0.00000000  0.75412000  0.95919000  1.0
  Pd  Pd24  1  0.75000000  0.75000000  0.04027000  1.0
  Pd  Pd25  1  0.25000000  0.75000000  0.04027000  1.0
  Pd  Pd26  1  0.00000000  0.25000000  0.12082000  1.0
  Pd  Pd27  1  0.50000000  0.25000000  0.12082000  1.0
  Pd  Pd28  1  0.25349000  0.74065000  0.88509000  1.0
  Pd  Pd29  1  0.74651000  0.74065000  0.88509000  1.0
  Pd  Pd30  1  0.50000000  0.24581000  0.96061000  1.0
  Pd  Pd31  1  0.00000000  0.24961000  0.95791000  1.0
  C  C32  1  0.00000000  0.49246000  0.80362000  1.0
  O  O33  1  0.00000000  0.49347000  0.75979000  1.0
