# generated using pymatgen
data_Li8Ga16Rh8C
_symmetry_space_group_name_H-M   Pm
_cell_length_a   6.12388000
_cell_length_b   8.66047000
_cell_length_c   26.49540000
_cell_angle_alpha   90.00000000
_cell_angle_beta   90.00000000
_cell_angle_gamma   90.00000000
_symmetry_Int_Tables_number   6
_chemical_formula_structural   Li8Ga16Rh8C
_chemical_formula_sum   'Li8 Ga16 Rh8 C1'
_cell_volume   1405.20153000
_cell_formula_units_Z   1
loop_
 _symmetry_equiv_pos_site_id
 _symmetry_equiv_pos_as_xyz
  1  'x, y, z'
  2  'x, -y, z'
loop_
 _atom_site_type_symbol
 _atom_site_label
 _atom_site_symmetry_multiplicity
 _atom_site_fract_x
 _atom_site_fract_y
 _atom_site_fract_z
 _atom_site_occupancy
  Li  Li0  2  0.00000000  0.25000000  0.87742000  1.0
  Li  Li1  2  0.01155000  0.24429000  0.04180000  1.0
  Li  Li2  1  0.48561000  0.50000000  0.13270000  1.0
  Li  Li3  1  0.50000000  0.00000000  0.95914000  1.0
  Li  Li4  1  0.50000000  0.50000000  0.95914000  1.0
  Li  Li5  1  0.55854000  0.00000000  0.15004000  1.0
  Ga  Ga6  2  0.25000000  0.25000000  0.95914000  1.0
  Ga  Ga7  2  0.25064000  0.23919000  0.13697000  1.0
  Ga  Ga8  2  0.75000000  0.25000000  0.95914000  1.0
  Ga  Ga9  2  0.77181000  0.26489000  0.12405000  1.0
  Ga  Ga10  1  0.25000000  0.00000000  0.87742000  1.0
  Ga  Ga11  1  0.25000000  0.50000000  0.87742000  1.0
  Ga  Ga12  1  0.26312000  0.50000000  0.03949000  1.0
  Ga  Ga13  1  0.27629000  0.00000000  0.04768000  1.0
  Ga  Ga14  1  0.73146000  0.00000000  0.03591000  1.0
  Ga  Ga15  1  0.75000000  0.00000000  0.87742000  1.0
  Ga  Ga16  1  0.75000000  0.50000000  0.87742000  1.0
  Ga  Ga17  1  0.75751000  0.50000000  0.04267000  1.0
  Rh  Rh18  2  0.50000000  0.25000000  0.87742000  1.0
  Rh  Rh19  2  0.50599000  0.25740000  0.03839000  1.0
  Rh  Rh20  1  0.00000000  0.00000000  0.95914000  1.0
  Rh  Rh21  1  0.00000000  0.50000000  0.95914000  1.0
  Rh  Rh22  1  0.02761000  0.50000000  0.11687000  1.0
  Rh  Rh23  1  0.94035000  0.00000000  0.11311000  1.0
  C  C24  1  0.23364000  0.00000000  0.14035000  1.0
