# generated using pymatgen
data_V8Ni16Sn8C
_symmetry_space_group_name_H-M   Pm
_cell_length_a   8.61509000
_cell_length_b   6.09179000
_cell_length_c   26.46130000
_cell_angle_alpha   90.00000000
_cell_angle_beta   90.00000000
_cell_angle_gamma   90.00000000
_symmetry_Int_Tables_number   6
_chemical_formula_structural   V8Ni16Sn8C
_chemical_formula_sum   'V8 Ni16 Sn8 C1'
_cell_volume   1388.72392939
_cell_formula_units_Z   1
loop_
 _symmetry_equiv_pos_site_id
 _symmetry_equiv_pos_as_xyz
  1  'x, y, z'
  2  'x, -y, z'
loop_
 _atom_site_type_symbol
 _atom_site_label
 _atom_site_symmetry_multiplicity
 _atom_site_fract_x
 _atom_site_fract_y
 _atom_site_fract_z
 _atom_site_occupancy
  V  V0  1  0.00000000  0.00000000  0.87791000  1.0
  V  V1  1  0.00001000  0.00000000  0.04647000  1.0
  V  V2  1  0.25000000  0.50000000  0.95930000  1.0
  V  V3  1  0.25190000  0.50000000  0.11467000  1.0
  V  V4  1  0.50000000  0.00000000  0.87791000  1.0
  V  V5  1  0.50002000  0.00000000  0.04120000  1.0
  V  V6  1  0.74806000  0.50000000  0.11469000  1.0
  V  V7  1  0.75000000  0.50000000  0.95930000  1.0
  Ni  Ni8  2  0.00000000  0.25000000  0.95930000  1.0
  Ni  Ni9  2  0.25000000  0.25000000  0.87791000  1.0
  Ni  Ni10  2  0.25706000  0.22254000  0.04704000  1.0
  Ni  Ni11  2  0.50000000  0.25000000  0.95930000  1.0
  Ni  Ni12  2  0.50001000  0.28112000  0.11624000  1.0
  Ni  Ni13  2  0.74298000  0.22252000  0.04707000  1.0
  Ni  Ni14  2  0.75000000  0.25000000  0.87791000  1.0
  Ni  Ni15  2  0.99995000  0.29775000  0.12457000  1.0
  Sn  Sn16  1  0.00000000  0.50000000  0.87791000  1.0
  Sn  Sn17  1  0.00001000  0.50000000  0.03794000  1.0
  Sn  Sn18  1  0.25000000  0.00000000  0.95930000  1.0
  Sn  Sn19  1  0.26795000  0.00000000  0.14184000  1.0
  Sn  Sn20  1  0.50000000  0.50000000  0.03527000  1.0
  Sn  Sn21  1  0.50000000  0.50000000  0.87791000  1.0
  Sn  Sn22  1  0.73205000  0.00000000  0.14186000  1.0
  Sn  Sn23  1  0.75000000  0.00000000  0.95930000  1.0
  C  C24  1  0.00001000  0.00000000  0.11942000  1.0
