# generated using pymatgen
data_LiYCuGe
_symmetry_space_group_name_H-M   Cmm2
_cell_length_a   9.41914316
_cell_length_b   9.41914316
_cell_length_c   24.99530000
_cell_angle_alpha   90.00000000
_cell_angle_beta   90.00000000
_cell_angle_gamma   90.00000000
_symmetry_Int_Tables_number   35
_chemical_formula_structural   LiYCuGe
_chemical_formula_sum   'Li8 Y8 Cu8 Ge8'
_cell_volume   2217.58946057
_cell_formula_units_Z   8
loop_
 _symmetry_equiv_pos_site_id
 _symmetry_equiv_pos_as_xyz
  1  'x, y, z'
  2  '-x, -y, z'
  3  '-x, y, z'
  4  'x, -y, z'
  5  'x+1/2, y+1/2, z'
  6  '-x+1/2, -y+1/2, z'
  7  '-x+1/2, y+1/2, z'
  8  'x+1/2, -y+1/2, z'
loop_
 _atom_site_type_symbol
 _atom_site_label
 _atom_site_symmetry_multiplicity
 _atom_site_fract_x
 _atom_site_fract_y
 _atom_site_fract_z
 _atom_site_occupancy
  Li  Li0  4  0.00000000  0.25000000  0.90008000  1.0
  Li  Li1  4  0.24949000  0.50000000  0.03686000  1.0
  Y  Y2  4  0.00000000  0.24994000  0.03499000  1.0
  Y  Y3  4  0.25000000  0.00000000  0.90008000  1.0
  Cu  Cu4  4  0.25000000  0.25000000  0.96669000  1.0
  Cu  Cu5  2  0.00000000  0.00000000  0.10190000  1.0
  Cu  Cu6  2  0.00000000  0.50000000  0.10191000  1.0
  Ge  Ge7  4  0.25000000  0.25000000  0.09883000  1.0
  Ge  Ge8  2  0.00000000  0.00000000  0.96669000  1.0
  Ge  Ge9  2  0.00000000  0.50000000  0.96669000  1.0
