# generated using pymatgen
data_Na12As4C
_symmetry_space_group_name_H-M   'P 1'
_cell_length_a   7.20118000
_cell_length_b   7.20118000
_cell_length_c   25.40090000
_cell_angle_alpha   90.00000000
_cell_angle_beta   90.00000000
_cell_angle_gamma   90.00000000
_symmetry_Int_Tables_number   1
_chemical_formula_structural   Na12As4C
_chemical_formula_sum   'Na12 As4 C1'
_cell_volume   1317.21430346
_cell_formula_units_Z   1
loop_
 _symmetry_equiv_pos_site_id
 _symmetry_equiv_pos_as_xyz
  1  'x, y, z'
loop_
 _atom_site_type_symbol
 _atom_site_label
 _atom_site_symmetry_multiplicity
 _atom_site_fract_x
 _atom_site_fract_y
 _atom_site_fract_z
 _atom_site_occupancy
  Na  Na0  1  0.50000000  0.50000000  0.03544000  1
  Na  Na1  1  0.00000000  0.00000000  0.89369000  1
  Na  Na2  1  0.50000000  0.00000000  0.03544000  1
  Na  Na3  1  1.00000000  0.50000000  0.89369000  1
  Na  Na4  1  0.00000000  0.00000000  0.03544000  1
  Na  Na5  1  0.50000000  0.50000000  0.89369000  1
  Na  Na6  1  1.00000000  0.50000000  0.03544000  1
  Na  Na7  1  0.50000000  0.00000000  0.89369000  1
  Na  Na8  1  0.75000000  0.25000000  0.96456000  1
  Na  Na9  1  0.75000000  0.75000000  0.10631000  1
  Na  Na10  1  0.25000000  0.25000000  0.10631000  1
  Na  Na11  1  0.25000000  0.75000000  0.96456000  1
  As  As12  1  0.75000000  0.25000000  0.10631000  1
  As  As13  1  0.25000000  0.75000000  0.10631000  1
  As  As14  1  0.75000000  0.75000000  0.96456000  1
  As  As15  1  0.25000000  0.25000000  0.96456000  1
  C  C16  1  0.50000000  0.50000000  0.13781000  1
