# generated using pymatgen
data_Na8Pb24CO
_symmetry_space_group_name_H-M   'P 1'
_cell_length_a   10.02390000
_cell_length_b   10.02390000
_cell_length_c   27.51800000
_cell_angle_alpha   90.00000000
_cell_angle_beta   90.00000000
_cell_angle_gamma   90.00000000
_symmetry_Int_Tables_number   1
_chemical_formula_structural   Na8Pb24CO
_chemical_formula_sum   'Na8 Pb24 C1 O1'
_cell_volume   2764.96932256
_cell_formula_units_Z   1
loop_
 _symmetry_equiv_pos_site_id
 _symmetry_equiv_pos_as_xyz
  1  'x, y, z'
loop_
 _atom_site_type_symbol
 _atom_site_label
 _atom_site_symmetry_multiplicity
 _atom_site_fract_x
 _atom_site_fract_y
 _atom_site_fract_z
 _atom_site_occupancy
  Na  Na0  1  0.00000000  0.00000000  0.14153000  1.0
  Na  Na1  1  0.00000000  0.00000000  0.95447000  1.0
  Na  Na2  1  0.00000000  0.50000000  0.14702000  1.0
  Na  Na3  1  0.00000000  0.50000000  0.95447000  1.0
  Na  Na4  1  0.50000000  0.00000000  0.14702000  1.0
  Na  Na5  1  0.50000000  0.00000000  0.95447000  1.0
  Na  Na6  1  0.50000000  0.50000000  0.14791000  1.0
  Na  Na7  1  0.50000000  0.50000000  0.95447000  1.0
  Pb  Pb8  1  0.00000000  0.25391000  0.05536000  1.0
  Pb  Pb9  1  0.25391000  0.00000000  0.05536000  1.0
  Pb  Pb10  1  0.25049000  0.25049000  0.13980000  1.0
  Pb  Pb11  1  0.00000000  0.24999000  0.86340000  1.0
  Pb  Pb12  1  0.24999000  0.00000000  0.86340000  1.0
  Pb  Pb13  1  0.24999000  0.24999000  0.95447000  1.0
  Pb  Pb14  1  0.00000000  0.74609000  0.05536000  1.0
  Pb  Pb15  1  0.25063000  0.50000000  0.05619000  1.0
  Pb  Pb16  1  0.25049000  0.74951000  0.13980000  1.0
  Pb  Pb17  1  0.00000000  0.75001000  0.86340000  1.0
  Pb  Pb18  1  0.24999000  0.50000000  0.86340000  1.0
  Pb  Pb19  1  0.24999000  0.75001000  0.95447000  1.0
  Pb  Pb20  1  0.50000000  0.25063000  0.05619000  1.0
  Pb  Pb21  1  0.74609000  0.00000000  0.05536000  1.0
  Pb  Pb22  1  0.74951000  0.25049000  0.13980000  1.0
  Pb  Pb23  1  0.50000000  0.24999000  0.86340000  1.0
  Pb  Pb24  1  0.75001000  0.00000000  0.86340000  1.0
  Pb  Pb25  1  0.75001000  0.24999000  0.95447000  1.0
  Pb  Pb26  1  0.50000000  0.74937000  0.05619000  1.0
  Pb  Pb27  1  0.74937000  0.50000000  0.05619000  1.0
  Pb  Pb28  1  0.74951000  0.74951000  0.13980000  1.0
  Pb  Pb29  1  0.50000000  0.75001000  0.86340000  1.0
  Pb  Pb30  1  0.75001000  0.50000000  0.86340000  1.0
  Pb  Pb31  1  0.75001000  0.75001000  0.95447000  1.0
  C  C32  1  0.00000000  0.00000000  0.23500000  1.0
  O  O33  1  0.00000000  0.00000000  0.27632000  1.0
