# generated using pymatgen
data_Na8Pb24CO
_symmetry_space_group_name_H-M   P4mm
_cell_length_a   10.02390000
_cell_length_b   10.02390000
_cell_length_c   27.51800000
_cell_angle_alpha   90.00000000
_cell_angle_beta   90.00000000
_cell_angle_gamma   90.00000000
_symmetry_Int_Tables_number   99
_chemical_formula_structural   Na8Pb24CO
_chemical_formula_sum   'Na8 Pb24 C1 O1'
_cell_volume   2764.96932256
_cell_formula_units_Z   1
loop_
 _symmetry_equiv_pos_site_id
 _symmetry_equiv_pos_as_xyz
  1  'x, y, z'
  2  '-y, x, z'
  3  '-x, -y, z'
  4  'y, -x, z'
  5  '-x, y, z'
  6  'y, x, z'
  7  'x, -y, z'
  8  '-y, -x, z'
loop_
 _atom_site_type_symbol
 _atom_site_label
 _atom_site_symmetry_multiplicity
 _atom_site_fract_x
 _atom_site_fract_y
 _atom_site_fract_z
 _atom_site_occupancy
  Na  Na0  2  0.00000000  0.50000000  0.14702000  1.0
  Na  Na1  2  0.00000000  0.50000000  0.95447000  1.0
  Na  Na2  1  0.00000000  0.00000000  0.14153000  1.0
  Na  Na3  1  0.00000000  0.00000000  0.95447000  1.0
  Na  Na4  1  0.50000000  0.50000000  0.14791000  1.0
  Na  Na5  1  0.50000000  0.50000000  0.95447000  1.0
  Pb  Pb6  4  0.00000000  0.24999000  0.86340000  1.0
  Pb  Pb7  4  0.00000000  0.25391000  0.05536000  1.0
  Pb  Pb8  4  0.24999000  0.24999000  0.95447000  1.0
  Pb  Pb9  4  0.24999000  0.50000000  0.86340000  1.0
  Pb  Pb10  4  0.25049000  0.25049000  0.13980000  1.0
  Pb  Pb11  4  0.25063000  0.50000000  0.05619000  1.0
  C  C12  1  0.00000000  0.00000000  0.23500000  1.0
  O  O13  1  0.00000000  0.00000000  0.27632000  1.0
