# generated using pymatgen
data_Li8Cu8Sn8Ge8C
_symmetry_space_group_name_H-M   'P 1'
_cell_length_a   6.57410000
_cell_length_b   9.29718000
_cell_length_c   26.97290000
_cell_angle_alpha   90.00000000
_cell_angle_beta   90.00000000
_cell_angle_gamma   90.00000000
_symmetry_Int_Tables_number   1
_chemical_formula_structural   Li8Cu8Sn8Ge8C
_chemical_formula_sum   'Li8 Cu8 Sn8 Ge8 C1'
_cell_volume   1648.59959001
_cell_formula_units_Z   1
loop_
 _symmetry_equiv_pos_site_id
 _symmetry_equiv_pos_as_xyz
  1  'x, y, z'
loop_
 _atom_site_type_symbol
 _atom_site_label
 _atom_site_symmetry_multiplicity
 _atom_site_fract_x
 _atom_site_fract_y
 _atom_site_fract_z
 _atom_site_occupancy
  Li  Li0  1  0.00000000  0.25000000  0.95691000  1.0
  Li  Li1  1  0.00000000  0.75000000  0.95691000  1.0
  Li  Li2  1  0.50000000  0.50000000  0.87074000  1.0
  Li  Li3  1  0.50000000  0.00000000  0.87074000  1.0
  Li  Li4  1  0.21281000  0.76621000  0.17660000  1.0
  Li  Li5  1  0.21281000  0.23383000  0.17658000  1.0
  Li  Li6  1  0.61051000  0.00000000  0.05347000  1.0
  Li  Li7  1  0.57622000  0.50000000  0.05478000  1.0
  Cu  Cu8  1  0.00000000  0.00000000  0.87074000  1.0
  Cu  Cu9  1  0.00000000  0.50000000  0.87074000  1.0
  Cu  Cu10  1  0.50000000  0.75000000  0.95691000  1.0
  Cu  Cu11  1  0.50000000  0.25000000  0.95691000  1.0
  Cu  Cu12  1  0.02078000  0.49999000  0.03371000  1.0
  Cu  Cu13  1  0.03232000  0.99999000  0.03515000  1.0
  Cu  Cu14  1  0.58872000  0.27842000  0.12129000  1.0
  Cu  Cu15  1  0.58872000  0.72157000  0.12129000  1.0
  Sn  Sn16  1  0.75000000  0.00000000  0.95691000  1.0
  Sn  Sn17  1  0.75000000  0.50000000  0.95691000  1.0
  Sn  Sn18  1  0.25000000  0.25000000  0.87074000  1.0
  Sn  Sn19  1  0.25000000  0.75000000  0.87074000  1.0
  Sn  Sn20  1  0.89852000  0.49999000  0.13571000  1.0
  Sn  Sn21  1  0.87791000  0.99999000  0.14170000  1.0
  Sn  Sn22  1  0.29861000  0.75040000  0.04791000  1.0
  Sn  Sn23  1  0.29862000  0.24961000  0.04791000  1.0
  Ge  Ge24  1  0.25000000  0.00000000  0.95691000  1.0
  Ge  Ge25  1  0.25000000  0.50000000  0.95691000  1.0
  Ge  Ge26  1  0.75000000  0.25000000  0.87074000  1.0
  Ge  Ge27  1  0.75000000  0.75000000  0.87074000  1.0
  Ge  Ge28  1  0.45668000  0.49999000  0.15926000  1.0
  Ge  Ge29  1  0.37875000  0.99997000  0.12703000  1.0
  Ge  Ge30  1  0.86470000  0.74941000  0.05641000  1.0
  Ge  Ge31  1  0.86471000  0.25058000  0.05642000  1.0
  C  C32  1  0.17398000  0.99994000  0.17497000  1.0
