# generated using pymatgen
data_Mn8Al8Ni16CO
_symmetry_space_group_name_H-M   'P 1'
_cell_length_a   5.81764000
_cell_length_b   8.22738000
_cell_length_c   26.17050000
_cell_angle_alpha   90.00000000
_cell_angle_beta   90.00000000
_cell_angle_gamma   90.00000000
_symmetry_Int_Tables_number   1
_chemical_formula_structural   Mn8Al8Ni16CO
_chemical_formula_sum   'Mn8 Al8 Ni16 C1 O1'
_cell_volume   1252.62311048
_cell_formula_units_Z   1
loop_
 _symmetry_equiv_pos_site_id
 _symmetry_equiv_pos_as_xyz
  1  'x, y, z'
loop_
 _atom_site_type_symbol
 _atom_site_label
 _atom_site_symmetry_multiplicity
 _atom_site_fract_x
 _atom_site_fract_y
 _atom_site_fract_z
 _atom_site_occupancy
  Mn  Mn0  1  0.00000000  0.75000000  0.88211000  1.0
  Mn  Mn1  1  0.50000000  0.00000000  0.96070000  1.0
  Mn  Mn2  1  0.50000000  0.50000000  0.96070000  1.0
  Mn  Mn3  1  0.00000000  0.25000000  0.88211000  1.0
  Mn  Mn4  1  0.00000000  0.25090000  0.03822000  1.0
  Mn  Mn5  1  0.50000000  0.50000000  0.12100000  1.0
  Mn  Mn6  1  0.50000000  0.00000000  0.12055000  1.0
  Mn  Mn7  1  0.00000000  0.74910000  0.03822000  1.0
  Al  Al8  1  0.00000000  0.50000000  0.96070000  1.0
  Al  Al9  1  0.50000000  0.75000000  0.88211000  1.0
  Al  Al10  1  0.00000000  0.00000000  0.96070000  1.0
  Al  Al11  1  0.50000000  0.25000000  0.88211000  1.0
  Al  Al12  1  0.00000000  0.00000000  0.11967000  1.0
  Al  Al13  1  0.50000000  0.24922000  0.03841000  1.0
  Al  Al14  1  0.00000000  0.50000000  0.11781000  1.0
  Al  Al15  1  0.50000000  0.75078000  0.03841000  1.0
  Ni  Ni16  1  0.25000000  0.75000000  0.96070000  1.0
  Ni  Ni17  1  0.75000000  0.25000000  0.96070000  1.0
  Ni  Ni18  1  0.75000000  0.75000000  0.96070000  1.0
  Ni  Ni19  1  0.25000000  0.25000000  0.96070000  1.0
  Ni  Ni20  1  0.75000000  0.50000000  0.88211000  1.0
  Ni  Ni21  1  0.25000000  0.00000000  0.88211000  1.0
  Ni  Ni22  1  0.25000000  0.50000000  0.88211000  1.0
  Ni  Ni23  1  0.75000000  0.00000000  0.88211000  1.0
  Ni  Ni24  1  0.24517000  0.25158000  0.11272000  1.0
  Ni  Ni25  1  0.75483000  0.74842000  0.11272000  1.0
  Ni  Ni26  1  0.75483000  0.25158000  0.11272000  1.0
  Ni  Ni27  1  0.24517000  0.74842000  0.11272000  1.0
  Ni  Ni28  1  0.75019000  0.00000000  0.03972000  1.0
  Ni  Ni29  1  0.25355000  0.50000000  0.03884000  1.0
  Ni  Ni30  1  0.24981000  0.00000000  0.03972000  1.0
  Ni  Ni31  1  0.74645000  0.50000000  0.03884000  1.0
  C  C32  1  0.00000000  0.00000000  0.19708000  1.0
  O  O33  1  0.00000000  0.00000000  0.24102000  1.0
