data_image0
_chemical_formula_structural       Hf8Co8CO
_chemical_formula_sum              "Hf8 Co8 C1 O1"
_cell_length_a       6.31043
_cell_length_b       6.31043
_cell_length_c       24.7328
_cell_angle_alpha    90
_cell_angle_beta     90
_cell_angle_gamma    90

_space_group_name_H-M_alt    "P 1"
_space_group_IT_number       1

loop_
  _space_group_symop_operation_xyz
  'x, y, z'

loop_
  _atom_site_type_symbol
  _atom_site_label
  _atom_site_symmetry_multiplicity
  _atom_site_fract_x
  _atom_site_fract_y
  _atom_site_fract_z
  _atom_site_occupancy
  Hf  Hf1       1.0  0.00000  0.00000  0.92038  1.0000
  Hf  Hf2       1.0  0.99951  0.99951  0.05442  1.0000
  Hf  Hf3       1.0  0.00000  0.50000  0.92038  1.0000
  Hf  Hf4       1.0  0.99951  0.50053  0.05441  1.0000
  Hf  Hf5       1.0  0.50000  0.00000  0.92038  1.0000
  Hf  Hf6       1.0  0.50053  0.99951  0.05441  1.0000
  Hf  Hf7       1.0  0.50000  0.50000  0.92038  1.0000
  Hf  Hf8       1.0  0.50053  0.50053  0.05441  1.0000
  Co  Co1       1.0  0.25000  0.25000  0.98417  1.0000
  Co  Co2       1.0  0.25002  0.25002  0.11218  1.0000
  Co  Co3       1.0  0.25000  0.75000  0.98417  1.0000
  Co  Co4       1.0  0.25004  0.75000  0.10610  1.0000
  Co  Co5       1.0  0.75000  0.25000  0.98417  1.0000
  Co  Co6       1.0  0.75000  0.25004  0.10610  1.0000
  Co  Co7       1.0  0.75000  0.75000  0.98417  1.0000
  Co  Co8       1.0  0.75001  0.75001  0.10594  1.0000
  C   C1        1.0  0.24969  0.24969  0.18514  1.0000
  O   O1        1.0  0.24999  0.24999  0.23193  1.0000
