# generated using pymatgen
data_Hf8Co8CO
_symmetry_space_group_name_H-M   Cm
_cell_length_a   8.92429569
_cell_length_b   8.92429569
_cell_length_c   24.73280000
_cell_angle_alpha   90.00000000
_cell_angle_beta   90.00000000
_cell_angle_gamma   90.00000000
_symmetry_Int_Tables_number   8
_chemical_formula_structural   Hf8Co8CO
_chemical_formula_sum   'Hf16 Co16 C2 O2'
_cell_volume   1969.79571533
_cell_formula_units_Z   2
loop_
 _symmetry_equiv_pos_site_id
 _symmetry_equiv_pos_as_xyz
  1  'x, y, z'
  2  'x, -y, z'
  3  'x+1/2, y+1/2, z'
  4  'x+1/2, -y+1/2, z'
loop_
 _atom_site_type_symbol
 _atom_site_label
 _atom_site_symmetry_multiplicity
 _atom_site_fract_x
 _atom_site_fract_y
 _atom_site_fract_z
 _atom_site_occupancy
  Hf  Hf0  4  0.25000000  0.25000000  0.92038000  1.0
  Hf  Hf1  4  0.25002000  0.25051000  0.05441000  1.0
  Hf  Hf2  2  0.00000000  0.00000000  0.92038000  1.0
  Hf  Hf3  2  0.00000000  0.50000000  0.92038000  1.0
  Hf  Hf4  2  0.00053000  0.50000000  0.05441000  1.0
  Hf  Hf5  2  0.49951000  0.50000000  0.05442000  1.0
  Co  Co6  4  0.00000000  0.25000000  0.98417000  1.0
  Co  Co7  4  0.00002000  0.25002000  0.10610000  1.0
  Co  Co8  2  0.25000000  0.00000000  0.98417000  1.0
  Co  Co9  2  0.25000000  0.50000000  0.98417000  1.0
  Co  Co10  2  0.25001000  0.50000000  0.10594000  1.0
  Co  Co11  2  0.25002000  0.00000000  0.11218000  1.0
  C  C12  2  0.24969000  0.00000000  0.18514000  1.0
  O  O13  2  0.24999000  0.00000000  0.23193000  1.0
