# generated using pymatgen
data_Al16Pd16CO
_symmetry_space_group_name_H-M   'P 1'
_cell_length_a   6.18271000
_cell_length_b   8.74368000
_cell_length_c   26.55780000
_cell_angle_alpha   90.00000000
_cell_angle_beta   90.00000000
_cell_angle_gamma   90.00000000
_symmetry_Int_Tables_number   1
_chemical_formula_structural   Al16Pd16CO
_chemical_formula_sum   'Al16 Pd16 C1 O1'
_cell_volume   1435.70504804
_cell_formula_units_Z   1
loop_
 _symmetry_equiv_pos_site_id
 _symmetry_equiv_pos_as_xyz
  1  'x, y, z'
loop_
 _atom_site_type_symbol
 _atom_site_label
 _atom_site_symmetry_multiplicity
 _atom_site_fract_x
 _atom_site_fract_y
 _atom_site_fract_z
 _atom_site_occupancy
  Al  Al0  1  0.00000000  0.75000000  0.87654000  1.0
  Al  Al1  1  0.00000000  0.00000000  0.95885000  1.0
  Al  Al2  1  0.00000000  0.74807000  0.04212000  1.0
  Al  Al3  1  0.00000000  0.00000000  0.12359000  1.0
  Al  Al4  1  0.00000000  0.25000000  0.87654000  1.0
  Al  Al5  1  0.00000000  0.50000000  0.95885000  1.0
  Al  Al6  1  0.00000000  0.25193000  0.04212000  1.0
  Al  Al7  1  0.00000000  0.50000000  0.12413000  1.0
  Al  Al8  1  0.50000000  0.75000000  0.87654000  1.0
  Al  Al9  1  0.50000000  0.00000000  0.95885000  1.0
  Al  Al10  1  0.50000000  0.74989000  0.04139000  1.0
  Al  Al11  1  0.50000000  0.00000000  0.12373000  1.0
  Al  Al12  1  0.50000000  0.25000000  0.87654000  1.0
  Al  Al13  1  0.50000000  0.50000000  0.95885000  1.0
  Al  Al14  1  0.50000000  0.25011000  0.04139000  1.0
  Al  Al15  1  0.50000000  0.50000000  0.12427000  1.0
  Pd  Pd16  1  0.25000000  0.00000000  0.87654000  1.0
  Pd  Pd17  1  0.25000000  0.75000000  0.95885000  1.0
  Pd  Pd18  1  0.24828000  0.00000000  0.03959000  1.0
  Pd  Pd19  1  0.25185000  0.74740000  0.11930000  1.0
  Pd  Pd20  1  0.25000000  0.50000000  0.87654000  1.0
  Pd  Pd21  1  0.25000000  0.25000000  0.95885000  1.0
  Pd  Pd22  1  0.25052000  0.50000000  0.03806000  1.0
  Pd  Pd23  1  0.25185000  0.25260000  0.11930000  1.0
  Pd  Pd24  1  0.75000000  0.00000000  0.87654000  1.0
  Pd  Pd25  1  0.75000000  0.75000000  0.95885000  1.0
  Pd  Pd26  1  0.75172000  0.00000000  0.03959000  1.0
  Pd  Pd27  1  0.74815000  0.74740000  0.11930000  1.0
  Pd  Pd28  1  0.75000000  0.50000000  0.87654000  1.0
  Pd  Pd29  1  0.75000000  0.25000000  0.95885000  1.0
  Pd  Pd30  1  0.74948000  0.50000000  0.03806000  1.0
  Pd  Pd31  1  0.74815000  0.25260000  0.11930000  1.0
  C  C32  1  0.00000000  0.00000000  0.19937000  1.0
  O  O33  1  0.00000000  0.00000000  0.24261000  1.0
