data_image0
_chemical_formula_structural       Y8Cu8Sn8Pd8CO
_chemical_formula_sum              "Y8 Cu8 Sn8 Pd8 C1 O1"
_cell_length_a       6.76496
_cell_length_b       9.5671
_cell_length_c       27.1753
_cell_angle_alpha    90
_cell_angle_beta     90
_cell_angle_gamma    90

_space_group_name_H-M_alt    "P 1"
_space_group_IT_number       1

loop_
  _space_group_symop_operation_xyz
  'x, y, z'

loop_
  _atom_site_type_symbol
  _atom_site_label
  _atom_site_symmetry_multiplicity
  _atom_site_fract_x
  _atom_site_fract_y
  _atom_site_fract_z
  _atom_site_occupancy
  Y   Y1        1.0  0.25000  0.00000  0.95599  1.0000
  Y   Y2        1.0  0.25000  0.50000  0.95599  1.0000
  Y   Y3        1.0  0.75000  0.25000  0.86798  1.0000
  Y   Y4        1.0  0.75000  0.75000  0.86798  1.0000
  Y   Y5        1.0  0.28604  0.48137  0.13751  1.0000
  Y   Y6        1.0  0.28605  0.01863  0.13751  1.0000
  Y   Y7        1.0  0.76449  0.75000  0.04568  1.0000
  Y   Y8        1.0  0.74953  0.25000  0.04452  1.0000
  Cu  Cu1       1.0  0.00000  0.00000  0.86798  1.0000
  Cu  Cu2       1.0  0.00000  0.50000  0.86798  1.0000
  Cu  Cu3       1.0  0.50000  0.75000  0.95599  1.0000
  Cu  Cu4       1.0  0.50000  0.25000  0.95599  1.0000
  Cu  Cu5       1.0  0.02557  0.49932  0.05145  1.0000
  Cu  Cu6       1.0  0.02556  0.00068  0.05145  1.0000
  Cu  Cu7       1.0  0.63891  0.25001  0.15563  1.0000
  Cu  Cu8       1.0  0.49401  0.75000  0.13054  1.0000
  Sn  Sn1       1.0  0.75000  0.00000  0.95599  1.0000
  Sn  Sn2       1.0  0.75000  0.50000  0.95599  1.0000
  Sn  Sn3       1.0  0.25000  0.25000  0.86798  1.0000
  Sn  Sn4       1.0  0.25000  0.75000  0.86798  1.0000
  Sn  Sn5       1.0  0.77695  0.51313  0.13425  1.0000
  Sn  Sn6       1.0  0.77695  0.98687  0.13425  1.0000
  Sn  Sn7       1.0  0.25984  0.75000  0.04285  1.0000
  Sn  Sn8       1.0  0.25830  0.25000  0.04260  1.0000
  Pd  Pd1       1.0  0.00000  0.25000  0.95599  1.0000
  Pd  Pd2       1.0  0.00000  0.75000  0.95599  1.0000
  Pd  Pd3       1.0  0.50000  0.50000  0.86798  1.0000
  Pd  Pd4       1.0  0.50000  0.00000  0.86798  1.0000
  Pd  Pd5       1.0  0.05881  0.75000  0.13052  1.0000
  Pd  Pd6       1.0  0.01056  0.25000  0.12583  1.0000
  Pd  Pd7       1.0  0.50115  0.99794  0.04605  1.0000
  Pd  Pd8       1.0  0.50115  0.50207  0.04605  1.0000
  C   C1        1.0  0.38836  0.25000  0.18993  1.0000
  O   O1        1.0  0.34468  0.24999  0.23246  1.0000
