# generated using pymatgen
data_Y8Cu8Sn8Pd8CO
_symmetry_space_group_name_H-M   'P 1'
_cell_length_a   9.56710000
_cell_length_b   6.76496000
_cell_length_c   27.17530000
_cell_angle_alpha   90.00000000
_cell_angle_beta   90.00000000
_cell_angle_gamma   90.00000000
_symmetry_Int_Tables_number   1
_chemical_formula_structural   Y8Cu8Sn8Pd8CO
_chemical_formula_sum   'Y8 Cu8 Sn8 Pd8 C1 O1'
_cell_volume   1758.81391789
_cell_formula_units_Z   1
loop_
 _symmetry_equiv_pos_site_id
 _symmetry_equiv_pos_as_xyz
  1  'x, y, z'
loop_
 _atom_site_type_symbol
 _atom_site_label
 _atom_site_symmetry_multiplicity
 _atom_site_fract_x
 _atom_site_fract_y
 _atom_site_fract_z
 _atom_site_occupancy
  Y  Y0  1  0.75000000  0.25000000  0.04401000  1.0
  Y  Y1  1  0.25000000  0.25000000  0.04401000  1.0
  Y  Y2  1  0.00000000  0.75000000  0.13202000  1.0
  Y  Y3  1  0.50000000  0.75000000  0.13202000  1.0
  Y  Y4  1  0.23137000  0.28604000  0.86249000  1.0
  Y  Y5  1  0.76863000  0.28604000  0.86249000  1.0
  Y  Y6  1  0.50000000  0.76449000  0.95432000  1.0
  Y  Y7  1  0.00000000  0.74953000  0.95548000  1.0
  Cu  Cu8  1  0.75000000  0.00000000  0.13202000  1.0
  Cu  Cu9  1  0.25000000  0.00000000  0.13202000  1.0
  Cu  Cu10  1  0.50000000  0.50000000  0.04401000  1.0
  Cu  Cu11  1  0.00000000  0.50000000  0.04401000  1.0
  Cu  Cu12  1  0.24932000  0.02557000  0.94855000  1.0
  Cu  Cu13  1  0.75068000  0.02557000  0.94855000  1.0
  Cu  Cu14  1  0.00000000  0.63891000  0.84437000  1.0
  Cu  Cu15  1  0.50000000  0.49401000  0.86946000  1.0
  Sn  Sn16  1  0.75000000  0.75000000  0.04401000  1.0
  Sn  Sn17  1  0.25000000  0.75000000  0.04401000  1.0
  Sn  Sn18  1  0.00000000  0.25000000  0.13202000  1.0
  Sn  Sn19  1  0.50000000  0.25000000  0.13202000  1.0
  Sn  Sn20  1  0.26313000  0.77695000  0.86575000  1.0
  Sn  Sn21  1  0.73687000  0.77695000  0.86575000  1.0
  Sn  Sn22  1  0.50000000  0.25984000  0.95715000  1.0
  Sn  Sn23  1  0.00000000  0.25830000  0.95740000  1.0
  Pd  Pd24  1  0.00000000  0.00000000  0.04401000  1.0
  Pd  Pd25  1  0.50000000  1.00000000  0.04401000  1.0
  Pd  Pd26  1  0.25000000  0.50000000  0.13202000  1.0
  Pd  Pd27  1  0.75000000  0.50000000  0.13202000  1.0
  Pd  Pd28  1  0.50000000  0.05881000  0.86948000  1.0
  Pd  Pd29  1  0.00000000  0.01056000  0.87417000  1.0
  Pd  Pd30  1  0.74794000  0.50115000  0.95395000  1.0
  Pd  Pd31  1  0.25206000  0.50115000  0.95395000  1.0
  C  C32  1  0.00000000  0.38836000  0.81007000  1.0
  O  O33  1  0.00000000  0.34468000  0.76754000  1.0
