# generated using pymatgen
data_Y8Cu8Sn8Pd8CO
_symmetry_space_group_name_H-M   Pm
_cell_length_a   6.76496000
_cell_length_b   9.56710000
_cell_length_c   27.17530000
_cell_angle_alpha   90.00000000
_cell_angle_beta   90.00000000
_cell_angle_gamma   90.00000000
_symmetry_Int_Tables_number   6
_chemical_formula_structural   Y8Cu8Sn8Pd8CO
_chemical_formula_sum   'Y8 Cu8 Sn8 Pd8 C1 O1'
_cell_volume   1758.81391789
_cell_formula_units_Z   1
loop_
 _symmetry_equiv_pos_site_id
 _symmetry_equiv_pos_as_xyz
  1  'x, y, z'
  2  'x, -y, z'
loop_
 _atom_site_type_symbol
 _atom_site_label
 _atom_site_symmetry_multiplicity
 _atom_site_fract_x
 _atom_site_fract_y
 _atom_site_fract_z
 _atom_site_occupancy
  Y  Y0  2  0.25000000  0.25000000  0.95599000  1.0
  Y  Y1  2  0.28604000  0.23137000  0.13751000  1.0
  Y  Y2  1  0.74953000  0.00000000  0.04452000  1.0
  Y  Y3  1  0.75000000  0.00000000  0.86798000  1.0
  Y  Y4  1  0.75000000  0.50000000  0.86798000  1.0
  Y  Y5  1  0.76449000  0.50000000  0.04568000  1.0
  Cu  Cu6  2  0.00000000  0.25000000  0.86798000  1.0
  Cu  Cu7  2  0.02557000  0.24932000  0.05145000  1.0
  Cu  Cu8  1  0.49401000  0.50000000  0.13054000  1.0
  Cu  Cu9  1  0.50000000  0.00000000  0.95599000  1.0
  Cu  Cu10  1  0.50000000  0.50000000  0.95599000  1.0
  Cu  Cu11  1  0.63891000  0.00000000  0.15563000  1.0
  Sn  Sn12  2  0.75000000  0.25000000  0.95599000  1.0
  Sn  Sn13  2  0.77695000  0.26313000  0.13425000  1.0
  Sn  Sn14  1  0.25000000  0.00000000  0.86798000  1.0
  Sn  Sn15  1  0.25000000  0.50000000  0.86798000  1.0
  Sn  Sn16  1  0.25830000  0.00000000  0.04260000  1.0
  Sn  Sn17  1  0.25984000  0.50000000  0.04285000  1.0
  Pd  Pd18  2  0.50000000  0.25000000  0.86798000  1.0
  Pd  Pd19  2  0.50115000  0.25206000  0.04605000  1.0
  Pd  Pd20  1  -0.00000000  0.50000000  0.95599000  1.0
  Pd  Pd21  1  0.00000000  0.00000000  0.95599000  1.0
  Pd  Pd22  1  0.01056000  0.00000000  0.12583000  1.0
  Pd  Pd23  1  0.05881000  0.50000000  0.13052000  1.0
  C  C24  1  0.38836000  0.00000000  0.18993000  1.0
  O  O25  1  0.34468000  0.00000000  0.23246000  1.0
