# generated using pymatgen
data_Li2AgPb
_symmetry_space_group_name_H-M   'P 1'
_cell_length_a   6.84524000
_cell_length_b   4.84031500
_cell_length_c   27.26050000
_cell_angle_alpha   90.00000000
_cell_angle_beta   90.00000000
_cell_angle_gamma   90.00000000
_symmetry_Int_Tables_number   1
_chemical_formula_structural   Li2AgPb
_chemical_formula_sum   'Li8 Ag4 Pb4'
_cell_volume   903.22535917
_cell_formula_units_Z   4
loop_
 _symmetry_equiv_pos_site_id
 _symmetry_equiv_pos_as_xyz
  1  'x, y, z'
loop_
 _atom_site_type_symbol
 _atom_site_label
 _atom_site_symmetry_multiplicity
 _atom_site_fract_x
 _atom_site_fract_y
 _atom_site_fract_z
 _atom_site_occupancy
  Li  Li0  1  0.00000000  0.50000000  0.95561000  1.0
  Li  Li1  1  0.50000000  0.00000000  0.86683000  1.0
  Li  Li2  1  0.75000000  0.50000000  0.86683000  1.0
  Li  Li3  1  0.25000000  0.00000000  0.95561000  1.0
  Li  Li4  1  0.97935500  0.50000000  0.12830000  1.0
  Li  Li5  1  0.49253500  0.00000000  0.03937000  1.0
  Li  Li6  1  0.72359500  0.50000000  0.05005000  1.0
  Li  Li7  1  0.27951000  0.00000000  0.12984000  1.0
  Ag  Ag8  1  0.75000000  0.00000000  0.95561000  1.0
  Ag  Ag9  1  0.25000000  0.50000000  0.86683000  1.0
  Ag  Ag10  1  0.72037500  0.00000000  0.12249000  1.0
  Ag  Ag11  1  0.27718000  0.50000000  0.05379000  1.0
  Pb  Pb12  1  0.00000000  0.00000000  0.86683000  1.0
  Pb  Pb13  1  0.50000000  0.50000000  0.95561000  1.0
  Pb  Pb14  1  0.00898500  0.00000000  0.04377000  1.0
  Pb  Pb15  1  0.49881500  0.50000000  0.14977500  1.0
