# generated using pymatgen
data_Li4Ga4Ni4Pd4C
_symmetry_space_group_name_H-M   Cm
_cell_length_a   8.38939769
_cell_length_b   8.38939769
_cell_length_c   24.44920000
_cell_angle_alpha   90.00000000
_cell_angle_beta   90.00000000
_cell_angle_gamma   90.00000000
_symmetry_Int_Tables_number   8
_chemical_formula_structural   Li4Ga4Ni4Pd4C
_chemical_formula_sum   'Li8 Ga8 Ni8 Pd8 C2'
_cell_volume   1720.78343988
_cell_formula_units_Z   2
loop_
 _symmetry_equiv_pos_site_id
 _symmetry_equiv_pos_as_xyz
  1  'x, y, z'
  2  'x, -y, z'
  3  'x+1/2, y+1/2, z'
  4  'x+1/2, -y+1/2, z'
loop_
 _atom_site_type_symbol
 _atom_site_label
 _atom_site_symmetry_multiplicity
 _atom_site_fract_x
 _atom_site_fract_y
 _atom_site_fract_z
 _atom_site_occupancy
  Li  Li0  4  0.25001500  0.25001500  0.90901000  1.0
  Li  Li1  2  0.00002000  0.50000000  0.03487000  1.0
  Li  Li2  2  0.49999000  0.50000000  0.02503000  1.0
  Ga  Ga3  4  0.24997500  0.25005500  0.03360000  1.0
  Ga  Ga4  2  0.00001500  0.00000000  0.90901000  1.0
  Ga  Ga5  2  0.00001500  0.50000000  0.90901000  1.0
  Ni  Ni6  4  0.00001500  0.24998500  0.96967000  1.0
  Ni  Ni7  2  0.20969000  0.00000000  0.09156000  1.0
  Ni  Ni8  2  0.29030500  0.50000000  0.09160000  1.0
  Pd  Pd9  4  0.00002000  0.24528000  0.09512000  1.0
  Pd  Pd10  2  0.25001500  0.50000000  0.96967000  1.0
  Pd  Pd11  2  0.25001500  0.00000000  0.96967000  1.0
  C  C12  2  0.00003000  0.00000000  0.11155000  1.0
