# generated using pymatgen
data_Ga8Fe16Co8C
_symmetry_space_group_name_H-M   'P 1'
_cell_length_a   8.20054000
_cell_length_b   5.79866000
_cell_length_c   26.15040000
_cell_angle_alpha   90.00000000
_cell_angle_beta   90.00000000
_cell_angle_gamma   90.00000000
_symmetry_Int_Tables_number   1
_chemical_formula_structural   Ga8Fe16Co8C
_chemical_formula_sum   'Ga8 Fe16 Co8 C1'
_cell_volume   1243.50756754
_cell_formula_units_Z   1
loop_
 _symmetry_equiv_pos_site_id
 _symmetry_equiv_pos_as_xyz
  1  'x, y, z'
loop_
 _atom_site_type_symbol
 _atom_site_label
 _atom_site_symmetry_multiplicity
 _atom_site_fract_x
 _atom_site_fract_y
 _atom_site_fract_z
 _atom_site_occupancy
  Ga  Ga0  1  0.75000000  0.00000000  0.11760000  1.0
  Ga  Ga1  1  0.00000000  0.50000000  0.03920000  1.0
  Ga  Ga2  1  0.50000000  0.50000000  0.03920000  1.0
  Ga  Ga3  1  0.25000000  0.00000000  0.11760000  1.0
  Ga  Ga4  1  0.24390000  0.00394000  0.95974000  1.0
  Ga  Ga5  1  0.50000000  0.46795000  0.86903000  1.0
  Ga  Ga6  1  0.00000000  0.57518000  0.84680000  1.0
  Ga  Ga7  1  0.75610000  0.00394000  0.95974000  1.0
  Fe  Fe8  1  0.75000000  0.25000000  0.03920000  1.0
  Fe  Fe9  1  0.25000000  0.75000000  0.03920000  1.0
  Fe  Fe10  1  0.75000000  0.75000000  0.03920000  1.0
  Fe  Fe11  1  0.25000000  0.25000000  0.03920000  1.0
  Fe  Fe12  1  0.50000000  0.75000000  0.11760000  1.0
  Fe  Fe13  1  0.00000000  0.25000000  0.11760000  1.0
  Fe  Fe14  1  0.50000000  0.25000000  0.11760000  1.0
  Fe  Fe15  1  0.00000000  0.75000000  0.11760000  1.0
  Fe  Fe16  1  0.22783000  0.27712000  0.88274000  1.0
  Fe  Fe17  1  0.73815000  0.73563000  0.88363000  1.0
  Fe  Fe18  1  0.26185000  0.73563000  0.88363000  1.0
  Fe  Fe19  1  0.77217000  0.27712000  0.88274000  1.0
  Fe  Fe20  1  0.00000000  0.72622000  0.95935000  1.0
  Fe  Fe21  1  0.50000000  0.25588000  0.95985000  1.0
  Fe  Fe22  1  0.00000000  0.27921000  0.95020000  1.0
  Fe  Fe23  1  0.50000000  0.74808000  0.95782000  1.0
  Co  Co24  1  0.50000000  0.00000000  0.03920000  1.0
  Co  Co25  1  0.75000000  0.50000000  0.11760000  1.0
  Co  Co26  1  0.00000000  0.00000000  0.03920000  1.0
  Co  Co27  1  0.25000000  0.50000000  0.11760000  1.0
  Co  Co28  1  0.00000000  0.94373000  0.88601000  1.0
  Co  Co29  1  0.25754000  0.50257000  0.96463000  1.0
  Co  Co30  1  0.50000000  0.01217000  0.88956000  1.0
  Co  Co31  1  0.74246000  0.50257000  0.96463000  1.0
  C  C32  1  0.00000000  0.24777000  0.87101000  1.0
