# generated using pymatgen
data_Ga8Fe16Co8C
_symmetry_space_group_name_H-M   Pm
_cell_length_a   5.79866000
_cell_length_b   8.20054000
_cell_length_c   26.15040000
_cell_angle_alpha   90.00000000
_cell_angle_beta   90.00000000
_cell_angle_gamma   90.00000000
_symmetry_Int_Tables_number   6
_chemical_formula_structural   Ga8Fe16Co8C
_chemical_formula_sum   'Ga8 Fe16 Co8 C1'
_cell_volume   1243.50756754
_cell_formula_units_Z   1
loop_
 _symmetry_equiv_pos_site_id
 _symmetry_equiv_pos_as_xyz
  1  'x, y, z'
  2  'x, -y, z'
loop_
 _atom_site_type_symbol
 _atom_site_label
 _atom_site_symmetry_multiplicity
 _atom_site_fract_x
 _atom_site_fract_y
 _atom_site_fract_z
 _atom_site_occupancy
  Ga  Ga0  2  0.00000000  0.25000000  0.88240000  1.0
  Ga  Ga1  2  0.00394000  0.24390000  0.04026000  1.0
  Ga  Ga2  1  0.46795000  0.50000000  0.13097000  1.0
  Ga  Ga3  1  0.50000000  0.00000000  0.96080000  1.0
  Ga  Ga4  1  0.50000000  0.50000000  0.96080000  1.0
  Ga  Ga5  1  0.57518000  0.00000000  0.15320000  1.0
  Fe  Fe6  2  0.25000000  0.25000000  0.96080000  1.0
  Fe  Fe7  2  0.27712000  0.22783000  0.11726000  1.0
  Fe  Fe8  2  0.73563000  0.26185000  0.11637000  1.0
  Fe  Fe9  2  0.75000000  0.25000000  0.96080000  1.0
  Fe  Fe10  1  0.25000000  0.00000000  0.88240000  1.0
  Fe  Fe11  1  0.25000000  0.50000000  0.88240000  1.0
  Fe  Fe12  1  0.25588000  0.50000000  0.04015000  1.0
  Fe  Fe13  1  0.27921000  0.00000000  0.04980000  1.0
  Fe  Fe14  1  0.72622000  0.00000000  0.04065000  1.0
  Fe  Fe15  1  0.74808000  0.50000000  0.04218000  1.0
  Fe  Fe16  1  0.75000000  0.00000000  0.88240000  1.0
  Fe  Fe17  1  0.75000000  0.50000000  0.88240000  1.0
  Co  Co18  2  0.50000000  0.25000000  0.88240000  1.0
  Co  Co19  2  0.50257000  0.25754000  0.03537000  1.0
  Co  Co20  1  0.00000000  0.00000000  0.96080000  1.0
  Co  Co21  1  0.00000000  0.50000000  0.96080000  1.0
  Co  Co22  1  0.01217000  0.50000000  0.11044000  1.0
  Co  Co23  1  0.94373000  0.00000000  0.11399000  1.0
  C  C24  1  0.24777000  0.00000000  0.12899000  1.0
