# generated using pymatgen
data_Li8Mg8In8Sn8CO
_symmetry_space_group_name_H-M   'P 1'
_cell_length_a   7.01918000
_cell_length_b   9.92662000
_cell_length_c   27.44500000
_cell_angle_alpha   90.00000000
_cell_angle_beta   90.00000000
_cell_angle_gamma   90.00000000
_symmetry_Int_Tables_number   1
_chemical_formula_structural   Li8Mg8In8Sn8CO
_chemical_formula_sum   'Li8 Mg8 In8 Sn8 C1 O1'
_cell_volume   1912.27792543
_cell_formula_units_Z   1
loop_
 _symmetry_equiv_pos_site_id
 _symmetry_equiv_pos_as_xyz
  1  'x, y, z'
loop_
 _atom_site_type_symbol
 _atom_site_label
 _atom_site_symmetry_multiplicity
 _atom_site_fract_x
 _atom_site_fract_y
 _atom_site_fract_z
 _atom_site_occupancy
  Li  Li0  1  0.25000000  0.00000000  0.95479000  1.0
  Li  Li1  1  0.25000000  0.50000000  0.95479000  1.0
  Li  Li2  1  0.75000000  0.75000000  0.86437000  1.0
  Li  Li3  1  0.75000000  0.25000000  0.86437000  1.0
  Li  Li4  1  0.24430000  0.50390000  0.14108000  1.0
  Li  Li5  1  0.24431000  0.99609000  0.14108000  1.0
  Li  Li6  1  0.74471000  0.25002000  0.05012000  1.0
  Li  Li7  1  0.74207000  0.75001000  0.04744000  1.0
  Mg  Mg8  1  0.75000000  0.00000000  0.95479000  1.0
  Mg  Mg9  1  0.75000000  0.50000000  0.95479000  1.0
  Mg  Mg10  1  0.25000000  0.75000000  0.86437000  1.0
  Mg  Mg11  1  0.25000000  0.25000000  0.86437000  1.0
  Mg  Mg12  1  0.75263000  0.49618000  0.14581000  1.0
  Mg  Mg13  1  0.75264000  0.00379000  0.14582000  1.0
  Mg  Mg14  1  0.25340000  0.25002000  0.05024000  1.0
  Mg  Mg15  1  0.25744000  0.75002000  0.05017000  1.0
  In  In16  1  0.00000000  0.00000000  0.86437000  1.0
  In  In17  1  0.00000000  0.50000000  0.86437000  1.0
  In  In18  1  0.50000000  0.25000000  0.95479000  1.0
  In  In19  1  0.50000000  0.75000000  0.95479000  1.0
  In  In20  1  0.99249000  0.50139000  0.04976000  1.0
  In  In21  1  0.99249000  0.99863000  0.04977000  1.0
  In  In22  1  0.49526000  0.74999000  0.15303000  1.0
  In  In23  1  0.48536000  0.24999000  0.15478000  1.0
  Sn  Sn24  1  0.00000000  0.75000000  0.95479000  1.0
  Sn  Sn25  1  0.00000000  0.25000000  0.95479000  1.0
  Sn  Sn26  1  0.50000000  0.50000000  0.86437000  1.0
  Sn  Sn27  1  0.50000000  0.00000000  0.86437000  1.0
  Sn  Sn28  1  0.00975000  0.24999000  0.14323000  1.0
  Sn  Sn29  1  0.99738000  0.74999000  0.14058000  1.0
  Sn  Sn30  1  0.50459000  0.00086000  0.05105000  1.0
  Sn  Sn31  1  0.50458000  0.49916000  0.05105000  1.0
  C  C32  1  0.10686000  0.75017000  0.28051000  1.0
  O  O33  1  0.96621000  0.74999000  0.30103000  1.0
