# generated using pymatgen
data_Li8Hf8In8Pd8C
_symmetry_space_group_name_H-M   'P 1'
_cell_length_a   9.21246000
_cell_length_b   6.51419000
_cell_length_c   26.90930000
_cell_angle_alpha   90.00000000
_cell_angle_beta   90.00000000
_cell_angle_gamma   90.00000000
_symmetry_Int_Tables_number   1
_chemical_formula_structural   Li8Hf8In8Pd8C
_chemical_formula_sum   'Li8 Hf8 In8 Pd8 C1'
_cell_volume   1614.87323727
_cell_formula_units_Z   1
loop_
 _symmetry_equiv_pos_site_id
 _symmetry_equiv_pos_as_xyz
  1  'x, y, z'
loop_
 _atom_site_type_symbol
 _atom_site_label
 _atom_site_symmetry_multiplicity
 _atom_site_fract_x
 _atom_site_fract_y
 _atom_site_fract_z
 _atom_site_occupancy
  Li  Li0  1  0.00000000  0.75000000  0.04279000  1.0
  Li  Li1  1  0.50000000  0.75000000  0.04279000  1.0
  Li  Li2  1  0.25000000  0.25000000  0.12838000  1.0
  Li  Li3  1  0.75000000  0.25000000  0.12838000  1.0
  Li  Li4  1  0.50000000  0.78689000  0.83436000  1.0
  Li  Li5  1  0.00000000  0.87206000  0.81877000  1.0
  Li  Li6  1  0.75142000  0.25202000  0.95224000  1.0
  Li  Li7  1  0.24858000  0.25202000  0.95224000  1.0
  Hf  Hf8  1  0.00000000  0.00000000  0.12838000  1.0
  Hf  Hf9  1  0.50000000  1.00000000  0.12838000  1.0
  Hf  Hf10  1  0.75000000  0.50000000  0.04279000  1.0
  Hf  Hf11  1  0.25000000  0.50000000  0.04279000  1.0
  Hf  Hf12  1  0.50000000  0.99280000  0.95211000  1.0
  Hf  Hf13  1  0.00000000  0.97396000  0.94954000  1.0
  Hf  Hf14  1  0.21044000  0.55146000  0.87002000  1.0
  Hf  Hf15  1  0.78956000  0.55146000  0.87002000  1.0
  In  In16  1  0.25000000  1.00000000  0.04279000  1.0
  In  In17  1  0.75000000  1.00000000  0.04279000  1.0
  In  In18  1  0.50000000  0.50000000  0.12838000  1.0
  In  In19  1  0.00000000  0.50000000  0.12838000  1.0
  In  In20  1  0.74064000  0.01988000  0.86347000  1.0
  In  In21  1  0.25936000  0.01988000  0.86347000  1.0
  In  In22  1  0.00000000  0.49512000  0.96028000  1.0
  In  In23  1  0.50000000  0.50808000  0.95598000  1.0
  Pd  Pd24  1  0.00000000  0.25000000  0.04279000  1.0
  Pd  Pd25  1  0.50000000  0.25000000  0.04279000  1.0
  Pd  Pd26  1  0.25000000  0.75000000  0.12838000  1.0
  Pd  Pd27  1  0.75000000  0.75000000  0.12838000  1.0
  Pd  Pd28  1  0.50000000  0.26923000  0.87393000  1.0
  Pd  Pd29  1  0.00000000  0.24128000  0.87549000  1.0
  Pd  Pd30  1  0.75070000  0.75335000  0.95845000  1.0
  Pd  Pd31  1  0.24930000  0.75335000  0.95845000  1.0
  C  C32  1  0.00000000  0.58124000  0.84573000  1.0
