# generated using pymatgen
data_Cu8Ni16Sn8CO
_symmetry_space_group_name_H-M   'P 1'
_cell_length_a   6.01864000
_cell_length_b   8.51164000
_cell_length_c   26.38370000
_cell_angle_alpha   90.00000000
_cell_angle_beta   90.00000000
_cell_angle_gamma   90.00000000
_symmetry_Int_Tables_number   1
_chemical_formula_structural   Cu8Ni16Sn8CO
_chemical_formula_sum   'Cu8 Ni16 Sn8 C1 O1'
_cell_volume   1351.59729550
_cell_formula_units_Z   1
loop_
 _symmetry_equiv_pos_site_id
 _symmetry_equiv_pos_as_xyz
  1  'x, y, z'
loop_
 _atom_site_type_symbol
 _atom_site_label
 _atom_site_symmetry_multiplicity
 _atom_site_fract_x
 _atom_site_fract_y
 _atom_site_fract_z
 _atom_site_occupancy
  Cu  Cu0  1  0.00000000  0.00000000  0.87902000  1.0
  Cu  Cu1  1  0.50000000  0.25000000  0.95967000  1.0
  Cu  Cu2  1  0.50000000  0.75000000  0.95967000  1.0
  Cu  Cu3  1  0.00000000  0.50000000  0.87902000  1.0
  Cu  Cu4  1  0.99910000  0.50005000  0.03639000  1.0
  Cu  Cu5  1  0.49782000  0.73703000  0.11880000  1.0
  Cu  Cu6  1  0.49787000  0.26288000  0.11880000  1.0
  Cu  Cu7  1  0.99830000  0.99995000  0.04403000  1.0
  Ni  Ni8  1  0.25000000  0.00000000  0.95967000  1.0
  Ni  Ni9  1  0.75000000  0.50000000  0.95967000  1.0
  Ni  Ni10  1  0.75000000  0.00000000  0.95967000  1.0
  Ni  Ni11  1  0.25000000  0.50000000  0.95967000  1.0
  Ni  Ni12  1  0.75000000  0.75000000  0.87902000  1.0
  Ni  Ni13  1  0.25000000  0.25000000  0.87902000  1.0
  Ni  Ni14  1  0.25000000  0.75000000  0.87902000  1.0
  Ni  Ni15  1  0.75000000  0.25000000  0.87902000  1.0
  Ni  Ni16  1  0.22595000  0.49999000  0.11477000  1.0
  Ni  Ni17  1  0.71867000  0.99990000  0.12229000  1.0
  Ni  Ni18  1  0.77023000  0.50002000  0.11467000  1.0
  Ni  Ni19  1  0.27714000  0.99994000  0.12191000  1.0
  Ni  Ni20  1  0.75863000  0.24961000  0.04169000  1.0
  Ni  Ni21  1  0.23848000  0.75079000  0.04185000  1.0
  Ni  Ni22  1  0.23877000  0.24923000  0.04181000  1.0
  Ni  Ni23  1  0.75893000  0.75040000  0.04173000  1.0
  Sn  Sn24  1  0.00000000  0.75000000  0.95967000  1.0
  Sn  Sn25  1  0.50000000  0.00000000  0.87902000  1.0
  Sn  Sn26  1  0.00000000  0.25000000  0.95967000  1.0
  Sn  Sn27  1  0.50000000  0.50000000  0.87902000  1.0
  Sn  Sn28  1  0.99777000  0.24355000  0.12956000  1.0
  Sn  Sn29  1  0.49868000  0.50010000  0.04001000  1.0
  Sn  Sn30  1  0.99782000  0.75638000  0.12966000  1.0
  Sn  Sn31  1  0.49922000  0.99991000  0.03781000  1.0
  C  C32  1  0.49697000  0.00013000  0.17404000  1.0
  O  O33  1  0.49545000  0.00017000  0.21874000  1.0
