data_image0
_chemical_formula_structural       ZnRhZnRhZnRhZnRhZnRhZnRhZnRhZnRhCO
_chemical_formula_sum              "Zn8 Rh8 C1 O1"
_cell_length_a       6.06651
_cell_length_b       6.06651
_cell_length_c       24.5499
_cell_angle_alpha    90
_cell_angle_beta     90
_cell_angle_gamma    90

_space_group_name_H-M_alt    "P 1"
_space_group_IT_number       1

loop_
  _space_group_symop_operation_xyz
  'x, y, z'

loop_
  _atom_site_type_symbol
  _atom_site_label
  _atom_site_symmetry_multiplicity
  _atom_site_fract_x
  _atom_site_fract_y
  _atom_site_fract_z
  _atom_site_occupancy
  Zn  Zn1       1.0  0.25000  0.25000  0.97600  1.0000
  Rh  Rh1       1.0  0.00000  0.00000  0.91422  1.0000
  Zn  Zn2       1.0  0.25000  0.25000  0.09955  1.0000
  Rh  Rh2       1.0  0.00000  0.00000  0.03778  1.0000
  Zn  Zn3       1.0  0.25000  0.75000  0.97600  1.0000
  Rh  Rh3       1.0  0.00000  0.50000  0.91422  1.0000
  Zn  Zn4       1.0  0.25000  0.75000  0.09955  1.0000
  Rh  Rh4       1.0  0.00000  0.50000  0.03778  1.0000
  Zn  Zn5       1.0  0.75000  0.25000  0.97600  1.0000
  Rh  Rh5       1.0  0.50000  0.00000  0.91422  1.0000
  Zn  Zn6       1.0  0.75000  0.25000  0.09955  1.0000
  Rh  Rh6       1.0  0.50000  0.00000  0.03778  1.0000
  Zn  Zn7       1.0  0.75000  0.75000  0.97600  1.0000
  Rh  Rh7       1.0  0.50000  0.50000  0.91422  1.0000
  Zn  Zn8       1.0  0.75000  0.75000  0.09955  1.0000
  Rh  Rh8       1.0  0.50000  0.50000  0.03778  1.0000
  C   C1        1.0  0.25000  0.25000  0.17695  1.0000
  O   O1        1.0  0.25000  0.25000  0.22379  1.0000
