# generated using pymatgen
data_V24Pt8CO
_symmetry_space_group_name_H-M   'P 1'
_cell_length_a   7.64728000
_cell_length_b   7.64728000
_cell_length_c   25.73550000
_cell_angle_alpha   90.00000000
_cell_angle_beta   90.00000000
_cell_angle_gamma   90.00000000
_symmetry_Int_Tables_number   1
_chemical_formula_structural   V24Pt8CO
_chemical_formula_sum   'V24 Pt8 C1 O1'
_cell_volume   1505.03498058
_cell_formula_units_Z   1
loop_
 _symmetry_equiv_pos_site_id
 _symmetry_equiv_pos_as_xyz
  1  'x, y, z'
loop_
 _atom_site_type_symbol
 _atom_site_label
 _atom_site_symmetry_multiplicity
 _atom_site_fract_x
 _atom_site_fract_y
 _atom_site_fract_z
 _atom_site_occupancy
  V  V0  1  0.75000000  0.00000000  0.03714000  1.0
  V  V1  1  0.00000000  0.75000000  0.03714000  1.0
  V  V2  1  0.00000000  0.00000000  0.11143000  1.0
  V  V3  1  0.75000000  0.00000000  0.88857000  1.0
  V  V4  1  0.00000000  0.75000000  0.88857000  1.0
  V  V5  1  0.00000000  0.00000000  0.96286000  1.0
  V  V6  1  0.75000000  0.50000000  0.03714000  1.0
  V  V7  1  0.00000000  0.25000000  0.03714000  1.0
  V  V8  1  0.00000000  0.50000000  0.11143000  1.0
  V  V9  1  0.75000000  0.50000000  0.88857000  1.0
  V  V10  1  0.00000000  0.25000000  0.88857000  1.0
  V  V11  1  0.00000000  0.50000000  0.96286000  1.0
  V  V12  1  0.25000000  0.00000000  0.03714000  1.0
  V  V13  1  0.50000000  0.75000000  0.03714000  1.0
  V  V14  1  0.50000000  0.00000000  0.11143000  1.0
  V  V15  1  0.25000000  0.00000000  0.88857000  1.0
  V  V16  1  0.50000000  0.75000000  0.88857000  1.0
  V  V17  1  0.50000000  0.00000000  0.96286000  1.0
  V  V18  1  0.25000000  0.50000000  0.03714000  1.0
  V  V19  1  0.50000000  0.25000000  0.03714000  1.0
  V  V20  1  0.50000000  0.50000000  0.11143000  1.0
  V  V21  1  0.25000000  0.50000000  0.88857000  1.0
  V  V22  1  0.50000000  0.25000000  0.88857000  1.0
  V  V23  1  0.50000000  0.50000000  0.96286000  1.0
  Pt  Pt24  1  0.75000000  0.75000000  0.11143000  1.0
  Pt  Pt25  1  0.75000000  0.75000000  0.96286000  1.0
  Pt  Pt26  1  0.75000000  0.25000000  0.11143000  1.0
  Pt  Pt27  1  0.75000000  0.25000000  0.96286000  1.0
  Pt  Pt28  1  0.25000000  0.75000000  0.11143000  1.0
  Pt  Pt29  1  0.25000000  0.75000000  0.96286000  1.0
  Pt  Pt30  1  0.25000000  0.25000000  0.11143000  1.0
  Pt  Pt31  1  0.25000000  0.25000000  0.96286000  1.0
  C  C32  1  0.00000000  0.00000000  0.18526000  1.0
  O  O33  1  0.00000000  0.00000000  0.22994000  1.0
