# generated using pymatgen
data_Li16Ga8Ir8C
_symmetry_space_group_name_H-M   'P 1'
_cell_length_a   8.38451000
_cell_length_b   5.92875000
_cell_length_c   26.28840000
_cell_angle_alpha   90.00000000
_cell_angle_beta   90.00000000
_cell_angle_gamma   90.00000000
_symmetry_Int_Tables_number   1
_chemical_formula_structural   Li16Ga8Ir8C
_chemical_formula_sum   'Li16 Ga8 Ir8 C1'
_cell_volume   1306.78752223
_cell_formula_units_Z   1
loop_
 _symmetry_equiv_pos_site_id
 _symmetry_equiv_pos_as_xyz
  1  'x, y, z'
loop_
 _atom_site_type_symbol
 _atom_site_label
 _atom_site_symmetry_multiplicity
 _atom_site_fract_x
 _atom_site_fract_y
 _atom_site_fract_z
 _atom_site_occupancy
  Li  Li0  1  0.00000000  0.24997000  0.96013000  1.0
  Li  Li1  1  0.50000000  0.74997000  0.96013000  1.0
  Li  Li2  1  0.00000000  0.75003000  0.96013000  1.0
  Li  Li3  1  0.50000000  0.25003000  0.96013000  1.0
  Li  Li4  1  0.75000000  0.74997000  0.88040000  1.0
  Li  Li5  1  0.25000000  0.25003000  0.88040000  1.0
  Li  Li6  1  0.75000000  0.24997000  0.88040000  1.0
  Li  Li7  1  0.25000000  0.75003000  0.88040000  1.0
  Li  Li8  1  0.50016000  0.23505000  0.14842000  1.0
  Li  Li9  1  0.00011000  0.77544000  0.16298000  1.0
  Li  Li10  1  0.49984000  0.76495000  0.14842000  1.0
  Li  Li11  1  0.99989000  0.22456000  0.16298000  1.0
  Li  Li12  1  0.25377000  0.75067000  0.03787000  1.0
  Li  Li13  1  0.74623000  0.24933000  0.03787000  1.0
  Li  Li14  1  0.25380000  0.24922000  0.03783000  1.0
  Li  Li15  1  0.74620000  0.75078000  0.03783000  1.0
  Ga  Ga16  1  0.00000000  0.00000000  0.88040000  1.0
  Ga  Ga17  1  0.25000000  0.49997000  0.96013000  1.0
  Ga  Ga18  1  0.75000000  0.50003000  0.96013000  1.0
  Ga  Ga19  1  0.50000000  0.00000000  0.88040000  1.0
  Ga  Ga20  1  0.50000000  0.00000000  0.05965000  1.0
  Ga  Ga21  1  0.75005000  0.50030000  0.11995000  1.0
  Ga  Ga22  1  0.24995000  0.49970000  0.11995000  1.0
  Ga  Ga23  1  0.00000000  0.00000000  0.05693000  1.0
  Ir  Ir24  1  0.75000000  0.99997000  0.96013000  1.0
  Ir  Ir25  1  0.00000000  0.50000000  0.88040000  1.0
  Ir  Ir26  1  0.25000000  0.00003000  0.96013000  1.0
  Ir  Ir27  1  0.50000000  0.50000000  0.88040000  1.0
  Ir  Ir28  1  0.24521000  0.00026000  0.11798000  1.0
  Ir  Ir29  1  0.50000000  0.50000000  0.06172000  1.0
  Ir  Ir30  1  0.75479000  0.99974000  0.11798000  1.0
  Ir  Ir31  1  0.00000000  0.50000000  0.04353000  1.0
  C  C32  1  0.00000000  0.50000000  0.11422000  1.0
