# generated using pymatgen
data_Li16Ga8Ir8C
_symmetry_space_group_name_H-M   P2
_cell_length_a   5.92875000
_cell_length_b   26.28840000
_cell_length_c   8.38451000
_cell_angle_alpha   90.00000000
_cell_angle_beta   90.00000000
_cell_angle_gamma   90.00000000
_symmetry_Int_Tables_number   3
_chemical_formula_structural   Li16Ga8Ir8C
_chemical_formula_sum   'Li16 Ga8 Ir8 C1'
_cell_volume   1306.78752223
_cell_formula_units_Z   1
loop_
 _symmetry_equiv_pos_site_id
 _symmetry_equiv_pos_as_xyz
  1  'x, y, z'
  2  '-x, y, -z'
loop_
 _atom_site_type_symbol
 _atom_site_label
 _atom_site_symmetry_multiplicity
 _atom_site_fract_x
 _atom_site_fract_y
 _atom_site_fract_z
 _atom_site_occupancy
  Li  Li0  2  0.22456000  0.83702000  0.99989000  1.0
  Li  Li1  2  0.23505000  0.85158000  0.50016000  1.0
  Li  Li2  2  0.24922000  0.96217000  0.25380000  1.0
  Li  Li3  2  0.24933000  0.96213000  0.74623000  1.0
  Li  Li4  2  0.24997000  0.03987000  0.00000000  1.0
  Li  Li5  2  0.24997000  0.11960000  0.75000000  1.0
  Li  Li6  2  0.25003000  0.03987000  0.50000000  1.0
  Li  Li7  2  0.25003000  0.11960000  0.25000000  1.0
  Ga  Ga8  2  0.49970000  0.88005000  0.24995000  1.0
  Ga  Ga9  2  0.49997000  0.03987000  0.25000000  1.0
  Ga  Ga10  1  0.00000000  0.11960000  0.00000000  1.0
  Ga  Ga11  1  0.00000000  0.11960000  0.50000000  1.0
  Ga  Ga12  1  0.00000000  0.94035000  0.50000000  1.0
  Ga  Ga13  1  0.00000000  0.94307000  0.00000000  1.0
  Ir  Ir14  2  0.00003000  0.03987000  0.25000000  1.0
  Ir  Ir15  2  0.00026000  0.88202000  0.24521000  1.0
  Ir  Ir16  1  0.50000000  0.11960000  0.00000000  1.0
  Ir  Ir17  1  0.50000000  0.11960000  0.50000000  1.0
  Ir  Ir18  1  0.50000000  0.93828000  0.50000000  1.0
  Ir  Ir19  1  0.50000000  0.95647000  0.00000000  1.0
  C  C20  1  0.50000000  0.88578000  0.00000000  1.0
