# generated using pymatgen
data_Li8Y8Ag8Pb8C
_symmetry_space_group_name_H-M   'P 1'
_cell_length_a   7.20907000
_cell_length_b   10.19520000
_cell_length_c   27.64640000
_cell_angle_alpha   90.00000000
_cell_angle_beta   90.00000000
_cell_angle_gamma   90.00000000
_symmetry_Int_Tables_number   1
_chemical_formula_structural   Li8Y8Ag8Pb8C
_chemical_formula_sum   'Li8 Y8 Ag8 Pb8 C1'
_cell_volume   2031.95263185
_cell_formula_units_Z   1
loop_
 _symmetry_equiv_pos_site_id
 _symmetry_equiv_pos_as_xyz
  1  'x, y, z'
loop_
 _atom_site_type_symbol
 _atom_site_label
 _atom_site_symmetry_multiplicity
 _atom_site_fract_x
 _atom_site_fract_y
 _atom_site_fract_z
 _atom_site_occupancy
  Li  Li0  1  0.25000000  0.00000000  0.95390000  1.0
  Li  Li1  1  0.25000000  0.50000000  0.95390000  1.0
  Li  Li2  1  0.75000000  0.25000000  0.86171000  1.0
  Li  Li3  1  0.75000000  0.75000000  0.86171000  1.0
  Li  Li4  1  0.24611000  0.51417000  0.13272000  1.0
  Li  Li5  1  0.24739000  0.98711000  0.13296000  1.0
  Li  Li6  1  0.75962000  0.74984000  0.04426000  1.0
  Li  Li7  1  0.75973000  0.24940000  0.04795000  1.0
  Y  Y8  1  0.75000000  0.00000000  0.95390000  1.0
  Y  Y9  1  0.75000000  0.50000000  0.95390000  1.0
  Y  Y10  1  0.25000000  0.25000000  0.86171000  1.0
  Y  Y11  1  0.25000000  0.75000000  0.86171000  1.0
  Y  Y12  1  0.77396000  0.46923000  0.14649000  1.0
  Y  Y13  1  0.77429000  0.03126000  0.14674000  1.0
  Y  Y14  1  0.25256000  0.75024000  0.04735000  1.0
  Y  Y15  1  0.24546000  0.24978000  0.04394000  1.0
  Ag  Ag16  1  0.00000000  0.00000000  0.86171000  1.0
  Ag  Ag17  1  0.00000000  0.50000000  0.86171000  1.0
  Ag  Ag18  1  0.50000000  0.75000000  0.95390000  1.0
  Ag  Ag19  1  0.50000000  0.25000000  0.95390000  1.0
  Ag  Ag20  1  0.99029000  0.50396000  0.04988000  1.0
  Ag  Ag21  1  0.98942000  0.99586000  0.04999000  1.0
  Ag  Ag22  1  0.49577000  0.24997000  0.12764000  1.0
  Ag  Ag23  1  0.54678000  0.75026000  0.12911000  1.0
  Pb  Pb24  1  0.00000000  0.25000000  0.95390000  1.0
  Pb  Pb25  1  0.00000000  0.75000000  0.95390000  1.0
  Pb  Pb26  1  0.50000000  0.50000000  0.86171000  1.0
  Pb  Pb27  1  0.50000000  0.00000000  0.86171000  1.0
  Pb  Pb28  1  0.99837000  0.75026000  0.14321000  1.0
  Pb  Pb29  1  0.08237000  0.25028000  0.14964000  1.0
  Pb  Pb30  1  0.51297000  0.00000000  0.05146000  1.0
  Pb  Pb31  1  0.51211000  0.49993000  0.05135000  1.0
  C  C32  1  0.77024000  0.25039000  0.16716000  1.0
