# generated using pymatgen
data_Sc4Pd12CO
_symmetry_space_group_name_H-M   'P 1'
_cell_length_a   5.71706000
_cell_length_b   8.08515000
_cell_length_c   24.28780000
_cell_angle_alpha   90.00000000
_cell_angle_beta   90.00000000
_cell_angle_gamma   90.00000000
_symmetry_Int_Tables_number   1
_chemical_formula_structural   Sc4Pd12CO
_chemical_formula_sum   'Sc4 Pd12 C1 O1'
_cell_volume   1122.66196600
_cell_formula_units_Z   1
loop_
 _symmetry_equiv_pos_site_id
 _symmetry_equiv_pos_as_xyz
  1  'x, y, z'
loop_
 _atom_site_type_symbol
 _atom_site_label
 _atom_site_symmetry_multiplicity
 _atom_site_fract_x
 _atom_site_fract_y
 _atom_site_fract_z
 _atom_site_occupancy
  Sc  Sc0  1  0.00000000  0.00000000  0.08827000  1.0
  Sc  Sc1  1  0.50800000  0.00688000  0.97124000  1.0
  Sc  Sc2  1  0.00000000  0.50000000  0.08827000  1.0
  Sc  Sc3  1  0.50688000  0.49292000  0.97090000  1.0
  Pd  Pd4  1  0.50000000  0.00000000  0.08827000  1.0
  Pd  Pd5  1  0.25000000  0.75000000  0.02942000  1.0
  Pd  Pd6  1  0.75000000  0.75000000  0.02942000  1.0
  Pd  Pd7  1  0.00506000  0.99869000  0.97364000  1.0
  Pd  Pd8  1  0.74382000  0.74992000  0.91169000  1.0
  Pd  Pd9  1  0.25853000  0.74987000  0.91143000  1.0
  Pd  Pd10  1  0.50000000  0.50000000  0.08827000  1.0
  Pd  Pd11  1  0.25000000  0.25000000  0.02942000  1.0
  Pd  Pd12  1  0.75000000  0.25000000  0.02942000  1.0
  Pd  Pd13  1  0.00422000  0.50127000  0.97375000  1.0
  Pd  Pd14  1  0.76139000  0.25014000  0.91421000  1.0
  Pd  Pd15  1  0.27087000  0.24991000  0.91495000  1.0
  C  C16  1  0.50045000  0.75037000  0.84983000  1.0
  O  O17  1  0.50464000  0.75096000  0.80174000  1.0
