# generated using pymatgen
data_Ti8Ni16Sn8CO
_symmetry_space_group_name_H-M   'P 1'
_cell_length_a   6.14873000
_cell_length_b   8.69561000
_cell_length_c   26.52170000
_cell_angle_alpha   90.00000000
_cell_angle_beta   90.00000000
_cell_angle_gamma   90.00000000
_symmetry_Int_Tables_number   1
_chemical_formula_structural   Ti8Ni16Sn8CO
_chemical_formula_sum   'Ti8 Ni16 Sn8 C1 O1'
_cell_volume   1418.03462199
_cell_formula_units_Z   1
loop_
 _symmetry_equiv_pos_site_id
 _symmetry_equiv_pos_as_xyz
  1  'x, y, z'
loop_
 _atom_site_type_symbol
 _atom_site_label
 _atom_site_symmetry_multiplicity
 _atom_site_fract_x
 _atom_site_fract_y
 _atom_site_fract_z
 _atom_site_occupancy
  Ti  Ti0  1  0.00000000  0.75000000  0.87705000  1.0
  Ti  Ti1  1  0.50000000  0.00000000  0.95902000  1.0
  Ti  Ti2  1  0.50000000  0.50000000  0.95902000  1.0
  Ti  Ti3  1  0.00000000  0.25000000  0.87705000  1.0
  Ti  Ti4  1  0.00000000  0.25122000  0.04254000  1.0
  Ti  Ti5  1  0.50000000  0.50000000  0.12119000  1.0
  Ti  Ti6  1  0.50000000  0.00000000  0.12167000  1.0
  Ti  Ti7  1  0.00000000  0.74878000  0.04254000  1.0
  Ni  Ni8  1  0.25000000  0.75000000  0.95902000  1.0
  Ni  Ni9  1  0.75000000  0.25000000  0.95902000  1.0
  Ni  Ni10  1  0.75000000  0.75000000  0.95902000  1.0
  Ni  Ni11  1  0.25000000  0.25000000  0.95902000  1.0
  Ni  Ni12  1  0.75000000  0.50000000  0.87705000  1.0
  Ni  Ni13  1  0.25000000  0.00000000  0.87705000  1.0
  Ni  Ni14  1  0.25000000  0.50000000  0.87705000  1.0
  Ni  Ni15  1  0.75000000  0.00000000  0.87705000  1.0
  Ni  Ni16  1  0.25809000  0.25190000  0.11774000  1.0
  Ni  Ni17  1  0.74191000  0.74810000  0.11774000  1.0
  Ni  Ni18  1  0.74191000  0.25190000  0.11774000  1.0
  Ni  Ni19  1  0.25809000  0.74810000  0.11774000  1.0
  Ni  Ni20  1  0.76753000  0.00000000  0.04314000  1.0
  Ni  Ni21  1  0.24521000  0.50000000  0.04444000  1.0
  Ni  Ni22  1  0.23247000  0.00000000  0.04314000  1.0
  Ni  Ni23  1  0.75479000  0.50000000  0.04444000  1.0
  Sn  Sn24  1  0.00000000  0.50000000  0.95902000  1.0
  Sn  Sn25  1  0.50000000  0.75000000  0.87705000  1.0
  Sn  Sn26  1  0.00000000  0.00000000  0.95902000  1.0
  Sn  Sn27  1  0.50000000  0.25000000  0.87705000  1.0
  Sn  Sn28  1  0.00000000  0.00000000  0.13234000  1.0
  Sn  Sn29  1  0.50000000  0.24708000  0.03870000  1.0
  Sn  Sn30  1  0.00000000  0.50000000  0.13269000  1.0
  Sn  Sn31  1  0.50000000  0.75292000  0.03870000  1.0
  C  C32  1  0.50000000  0.00000000  0.20143000  1.0
  O  O33  1  0.50000000  0.00000000  0.24486000  1.0
