# generated using pymatgen
data_Ti8Ni16Sn8CO
_symmetry_space_group_name_H-M   Pmm2
_cell_length_a   6.14873000
_cell_length_b   8.69561000
_cell_length_c   26.52170000
_cell_angle_alpha   90.00000000
_cell_angle_beta   90.00000000
_cell_angle_gamma   90.00000000
_symmetry_Int_Tables_number   25
_chemical_formula_structural   Ti8Ni16Sn8CO
_chemical_formula_sum   'Ti8 Ni16 Sn8 C1 O1'
_cell_volume   1418.03462199
_cell_formula_units_Z   1
loop_
 _symmetry_equiv_pos_site_id
 _symmetry_equiv_pos_as_xyz
  1  'x, y, z'
  2  '-x, -y, z'
  3  '-x, y, z'
  4  'x, -y, z'
loop_
 _atom_site_type_symbol
 _atom_site_label
 _atom_site_symmetry_multiplicity
 _atom_site_fract_x
 _atom_site_fract_y
 _atom_site_fract_z
 _atom_site_occupancy
  Ti  Ti0  2  0.00000000  0.25000000  0.87705000  1.0
  Ti  Ti1  2  0.00000000  0.25122000  0.04254000  1.0
  Ti  Ti2  1  0.50000000  0.00000000  0.12167000  1.0
  Ti  Ti3  1  0.50000000  0.00000000  0.95902000  1.0
  Ti  Ti4  1  0.50000000  0.50000000  0.12119000  1.0
  Ti  Ti5  1  0.50000000  0.50000000  0.95902000  1.0
  Ni  Ni6  4  0.25000000  0.25000000  0.95902000  1.0
  Ni  Ni7  4  0.25809000  0.25190000  0.11774000  1.0
  Ni  Ni8  2  0.23247000  0.00000000  0.04314000  1.0
  Ni  Ni9  2  0.24521000  0.50000000  0.04444000  1.0
  Ni  Ni10  2  0.25000000  0.00000000  0.87705000  1.0
  Ni  Ni11  2  0.25000000  0.50000000  0.87705000  1.0
  Sn  Sn12  2  0.50000000  0.24708000  0.03870000  1.0
  Sn  Sn13  2  0.50000000  0.25000000  0.87705000  1.0
  Sn  Sn14  1  0.00000000  0.00000000  0.13234000  1.0
  Sn  Sn15  1  0.00000000  0.00000000  0.95902000  1.0
  Sn  Sn16  1  0.00000000  0.50000000  0.13269000  1.0
  Sn  Sn17  1  0.00000000  0.50000000  0.95902000  1.0
  C  C18  1  0.50000000  0.00000000  0.20143000  1.0
  O  O19  1  0.50000000  0.00000000  0.24486000  1.0
