data_image0
_chemical_formula_structural       Ti3AuTi3AuTi3AuTi3AuCO
_chemical_formula_sum              "Ti12 Au4 C1 O1"
_cell_length_a       8.18271
_cell_length_b       5.78605
_cell_length_c       24.3395
_cell_angle_alpha    90
_cell_angle_beta     90
_cell_angle_gamma    90

_space_group_name_H-M_alt    "P 1"
_space_group_IT_number       1

loop_
  _space_group_symop_operation_xyz
  'x, y, z'

loop_
  _atom_site_type_symbol
  _atom_site_label
  _atom_site_symmetry_multiplicity
  _atom_site_fract_x
  _atom_site_fract_y
  _atom_site_fract_z
  _atom_site_occupancy
  Ti  Ti1       1.0  0.00000  0.50000  0.08915  1.0000
  Ti  Ti2       1.0  0.25000  0.75000  0.02972  1.0000
  Ti  Ti3       1.0  0.25000  0.25000  0.02972  1.0000
  Au  Au1       1.0  0.00000  0.00000  0.08915  1.0000
  Ti  Ti4       1.0  0.00000  0.00000  0.97028  1.0000
  Ti  Ti5       1.0  0.25000  0.25000  0.91085  1.0000
  Ti  Ti6       1.0  0.25000  0.75000  0.91085  1.0000
  Au  Au2       1.0  0.00000  0.50000  0.97028  1.0000
  Ti  Ti7       1.0  0.50000  0.50000  0.08915  1.0000
  Ti  Ti8       1.0  0.75000  0.75000  0.02972  1.0000
  Ti  Ti9       1.0  0.75000  0.25000  0.02972  1.0000
  Au  Au3       1.0  0.50000  0.00000  0.08915  1.0000
  Ti  Ti10      1.0  0.50000  0.00000  0.97028  1.0000
  Ti  Ti11      1.0  0.75000  0.25000  0.91085  1.0000
  Ti  Ti12      1.0  0.75000  0.75000  0.91085  1.0000
  Au  Au4       1.0  0.50000  0.50000  0.97028  1.0000
  C   C1        1.0  0.00000  0.00000  0.16721  1.0000
  O   O1        1.0  0.00000  0.00000  0.21446  1.0000
