# generated using pymatgen
data_Ti12Au4CO
_symmetry_space_group_name_H-M   Pmm2
_cell_length_a   5.78605000
_cell_length_b   8.18271000
_cell_length_c   24.33950000
_cell_angle_alpha   90.00000000
_cell_angle_beta   90.00000000
_cell_angle_gamma   90.00000000
_symmetry_Int_Tables_number   25
_chemical_formula_structural   Ti12Au4CO
_chemical_formula_sum   'Ti12 Au4 C1 O1'
_cell_volume   1152.36748143
_cell_formula_units_Z   1
loop_
 _symmetry_equiv_pos_site_id
 _symmetry_equiv_pos_as_xyz
  1  'x, y, z'
  2  '-x, -y, z'
  3  '-x, y, z'
  4  'x, -y, z'
loop_
 _atom_site_type_symbol
 _atom_site_label
 _atom_site_symmetry_multiplicity
 _atom_site_fract_x
 _atom_site_fract_y
 _atom_site_fract_z
 _atom_site_occupancy
  Ti  Ti0  4  0.25000000  0.24999000  0.08915000  1.0
  Ti  Ti1  4  0.25375000  0.25117000  0.97274000  1.0
  Ti  Ti2  1  0.00000000  0.00000000  0.02972000  1.0
  Ti  Ti3  1  0.00000000  0.50000000  0.02972000  1.0
  Ti  Ti4  1  0.50000000  0.00000000  0.91898000  1.0
  Ti  Ti5  1  0.50000000  0.50000000  0.91646000  1.0
  Au  Au6  1  0.00000000  0.00000000  0.91293000  1.0
  Au  Au7  1  0.00000000  0.50000000  0.91497000  1.0
  Au  Au8  1  0.50000000  0.00000000  0.02972000  1.0
  Au  Au9  1  0.50000000  0.50000000  0.02972000  1.0
  C  C10  1  0.00000000  0.00000000  0.82756000  1.0
  O  O11  1  0.00000000  0.00000000  0.78015000  1.0
