# generated using pymatgen
data_Mn16Zn16CO
_symmetry_space_group_name_H-M   'P 1'
_cell_length_a   6.05499000
_cell_length_b   8.56306000
_cell_length_c   26.42230000
_cell_angle_alpha   90.00000000
_cell_angle_beta   90.00000000
_cell_angle_gamma   90.00000000
_symmetry_Int_Tables_number   1
_chemical_formula_structural   Mn16Zn16CO
_chemical_formula_sum   'Mn16 Zn16 C1 O1'
_cell_volume   1369.97624458
_cell_formula_units_Z   1
loop_
 _symmetry_equiv_pos_site_id
 _symmetry_equiv_pos_as_xyz
  1  'x, y, z'
loop_
 _atom_site_type_symbol
 _atom_site_label
 _atom_site_symmetry_multiplicity
 _atom_site_fract_x
 _atom_site_fract_y
 _atom_site_fract_z
 _atom_site_occupancy
  Mn  Mn0  1  0.00000000  0.00000000  0.87847000  1.0
  Mn  Mn1  1  0.00000000  0.25000000  0.95949000  1.0
  Mn  Mn2  1  0.99649000  0.50002000  0.04058000  1.0
  Mn  Mn3  1  0.99726000  0.25278000  0.12305000  1.0
  Mn  Mn4  1  0.00000000  0.50000000  0.87847000  1.0
  Mn  Mn5  1  0.00000000  0.75000000  0.95949000  1.0
  Mn  Mn6  1  0.00666000  0.99998000  0.04206000  1.0
  Mn  Mn7  1  0.99727000  0.74720000  0.12306000  1.0
  Mn  Mn8  1  0.50000000  0.00000000  0.87847000  1.0
  Mn  Mn9  1  0.50000000  0.25000000  0.95949000  1.0
  Mn  Mn10  1  0.50332000  0.50002000  0.04053000  1.0
  Mn  Mn11  1  0.50257000  0.25277000  0.12306000  1.0
  Mn  Mn12  1  0.50000000  0.50000000  0.87847000  1.0
  Mn  Mn13  1  0.50000000  0.75000000  0.95949000  1.0
  Mn  Mn14  1  0.49311000  0.99999000  0.04203000  1.0
  Mn  Mn15  1  0.50255000  0.74721000  0.12307000  1.0
  Zn  Zn16  1  0.25000000  0.25000000  0.87847000  1.0
  Zn  Zn17  1  0.25000000  0.50000000  0.95949000  1.0
  Zn  Zn18  1  0.25009000  0.25352000  0.04045000  1.0
  Zn  Zn19  1  0.25026000  0.50003000  0.12462000  1.0
  Zn  Zn20  1  0.25000000  0.75000000  0.87847000  1.0
  Zn  Zn21  1  0.25000000  0.00000000  0.95949000  1.0
  Zn  Zn22  1  0.25010000  0.74649000  0.04045000  1.0
  Zn  Zn23  1  0.25029000  0.99995000  0.12647000  1.0
  Zn  Zn24  1  0.75000000  0.25000000  0.87847000  1.0
  Zn  Zn25  1  0.75000000  0.50000000  0.95949000  1.0
  Zn  Zn26  1  0.74982000  0.24691000  0.04028000  1.0
  Zn  Zn27  1  0.74964000  0.50004000  0.12581000  1.0
  Zn  Zn28  1  0.75000000  0.75000000  0.87847000  1.0
  Zn  Zn29  1  0.75000000  0.00000000  0.95949000  1.0
  Zn  Zn30  1  0.74982000  0.75309000  0.04028000  1.0
  Zn  Zn31  1  0.74968000  0.99993000  0.12307000  1.0
  C  C32  1  0.24810000  0.99999000  0.20288000  1.0
  O  O33  1  0.24762000  0.00001000  0.24641000  1.0
