# generated using pymatgen
data_Li8Mg8In8Ag8CO
_symmetry_space_group_name_H-M   Pm
_cell_length_a   6.69019000
_cell_length_b   9.46136000
_cell_length_c   27.09600000
_cell_angle_alpha   90.00000000
_cell_angle_beta   90.00000000
_cell_angle_gamma   90.00000000
_symmetry_Int_Tables_number   6
_chemical_formula_structural   Li8Mg8In8Ag8CO
_chemical_formula_sum   'Li8 Mg8 In8 Ag8 C1 O1'
_cell_volume   1715.13063000
_cell_formula_units_Z   1
loop_
 _symmetry_equiv_pos_site_id
 _symmetry_equiv_pos_as_xyz
  1  'x, y, z'
  2  'x, -y, z'
loop_
 _atom_site_type_symbol
 _atom_site_label
 _atom_site_symmetry_multiplicity
 _atom_site_fract_x
 _atom_site_fract_y
 _atom_site_fract_z
 _atom_site_occupancy
  Li  Li0  2  0.00000000  0.24997000  0.95635000  1.0
  Li  Li1  2  0.01103000  0.25028000  0.15293000  1.0
  Li  Li2  1  0.49032000  0.00000000  0.04740000  1.0
  Li  Li3  1  0.49706000  0.50000000  0.04703000  1.0
  Li  Li4  1  0.50000000  0.00000000  0.86906000  1.0
  Li  Li5  1  0.50000000  0.50000000  0.86906000  1.0
  Mg  Mg6  2  0.24221000  0.25093000  0.05018000  1.0
  Mg  Mg7  2  0.25000000  0.24997000  0.86906000  1.0
  Mg  Mg8  1  0.74754000  0.00000000  0.13645000  1.0
  Mg  Mg9  1  0.74816000  0.50000000  0.13683000  1.0
  Mg  Mg10  1  0.75000000  0.00000000  0.95635000  1.0
  Mg  Mg11  1  0.75000000  0.50000000  0.95635000  1.0
  In  In12  2  0.75000000  0.24997000  0.86906000  1.0
  In  In13  2  0.75127000  0.24914000  0.04985000  1.0
  In  In14  1  0.23717000  0.00000000  0.14236000  1.0
  In  In15  1  0.23933000  0.50000000  0.14210000  1.0
  In  In16  1  0.25000000  0.00000000  0.95635000  1.0
  In  In17  1  0.25000000  0.50000000  0.95635000  1.0
  Ag  Ag18  2  0.49442000  0.24968000  0.13557000  1.0
  Ag  Ag19  2  0.50000000  0.25003000  0.95635000  1.0
  Ag  Ag20  1  -0.00000000  0.50000000  0.86906000  1.0
  Ag  Ag21  1  0.00000000  0.00000000  0.86906000  1.0
  Ag  Ag22  1  0.00207000  0.50000000  0.04377000  1.0
  Ag  Ag23  1  0.00489000  0.00000000  0.04388000  1.0
  C  C24  1  0.15214000  0.00000000  0.29817000  1.0
  O  O25  1  0.30145000  0.00000000  0.31805000  1.0
