# generated using pymatgen
data_LiMgAgPd
_symmetry_space_group_name_H-M   Pmm2
_cell_length_a   4.51366765
_cell_length_b   4.51366765
_cell_length_c   24.78750000
_cell_angle_alpha   90.00000000
_cell_angle_beta   90.00000000
_cell_angle_gamma   90.00000000
_symmetry_Int_Tables_number   25
_chemical_formula_structural   LiMgAgPd
_chemical_formula_sum   'Li2 Mg2 Ag2 Pd2'
_cell_volume   505.00058623
_cell_formula_units_Z   2
loop_
 _symmetry_equiv_pos_site_id
 _symmetry_equiv_pos_as_xyz
  1  'x, y, z'
  2  '-x, -y, z'
  3  '-x, y, z'
  4  'x, -y, z'
loop_
 _atom_site_type_symbol
 _atom_site_label
 _atom_site_symmetry_multiplicity
 _atom_site_fract_x
 _atom_site_fract_y
 _atom_site_fract_z
 _atom_site_occupancy
  Li  Li0  1  0.00000000  0.50000000  0.03219000  1.0
  Li  Li1  1  0.50000000  0.00000000  0.90343000  1.0
  Mg  Mg2  1  0.00000000  0.50000000  0.90343000  1.0
  Mg  Mg3  1  0.50000000  0.00000000  0.03219000  1.0
  Ag  Ag4  1  0.00000000  0.00000000  0.09657000  1.0
  Ag  Ag5  1  0.50000000  0.50000000  0.96781000  1.0
  Pd  Pd6  1  0.00000000  0.00000000  0.96781000  1.0
  Pd  Pd7  1  0.50000000  0.50000000  0.09657000  1.0
