# generated using pymatgen
data_Y8In8Ge8Pd8CO
_symmetry_space_group_name_H-M   'P 1'
_cell_length_a   9.45024000
_cell_length_b   8.87204000
_cell_length_c   25.95260000
_cell_angle_alpha   90.00000000
_cell_angle_beta   90.00000000
_cell_angle_gamma   90.00000000
_symmetry_Int_Tables_number   1
_chemical_formula_structural   Y8In8Ge8Pd8CO
_chemical_formula_sum   'Y8 In8 Ge8 Pd8 C1 O1'
_cell_volume   2175.94143572
_cell_formula_units_Z   1
loop_
 _symmetry_equiv_pos_site_id
 _symmetry_equiv_pos_as_xyz
  1  'x, y, z'
loop_
 _atom_site_type_symbol
 _atom_site_label
 _atom_site_symmetry_multiplicity
 _atom_site_fract_x
 _atom_site_fract_y
 _atom_site_fract_z
 _atom_site_occupancy
  Y  Y0  1  0.73152000  0.25000000  0.95310000  1.0
  Y  Y1  1  0.74997000  0.25000000  0.11468000  1.0
  Y  Y2  1  0.26848000  0.25000000  0.95310000  1.0
  Y  Y3  1  0.25003000  0.25000000  0.11468000  1.0
  Y  Y4  1  0.73393000  0.75000000  0.95143000  1.0
  Y  Y5  1  0.74997000  0.75000000  0.11468000  1.0
  Y  Y6  1  0.26607000  0.75000000  0.95143000  1.0
  Y  Y7  1  0.25003000  0.75000000  0.11468000  1.0
  In  In8  1  0.00000000  0.99637000  0.96508000  1.0
  In  In9  1  0.00000000  0.00000000  0.11468000  1.0
  In  In10  1  0.50000000  0.99879000  0.97410000  1.0
  In  In11  1  0.50000000  0.00000000  0.11468000  1.0
  In  In12  1  0.00000000  0.50363000  0.96508000  1.0
  In  In13  1  0.00000000  0.50000000  0.11468000  1.0
  In  In14  1  0.50000000  0.50121000  0.97410000  1.0
  In  In15  1  0.50000000  0.50000000  0.11468000  1.0
  Ge  Ge16  1  0.64202000  0.00003000  0.87644000  1.0
  Ge  Ge17  1  0.74997000  0.00000000  0.03823000  1.0
  Ge  Ge18  1  0.35798000  0.00003000  0.87644000  1.0
  Ge  Ge19  1  0.25003000  0.00000000  0.03823000  1.0
  Ge  Ge20  1  0.64202000  0.49998000  0.87644000  1.0
  Ge  Ge21  1  0.74997000  0.50000000  0.03823000  1.0
  Ge  Ge22  1  0.35798000  0.49998000  0.87644000  1.0
  Ge  Ge23  1  0.25003000  0.50000000  0.03823000  1.0
  Pd  Pd24  1  0.00000000  0.24999000  0.90351000  1.0
  Pd  Pd25  1  0.00000000  0.25000000  0.03823000  1.0
  Pd  Pd26  1  0.50000000  0.25000000  0.86897000  1.0
  Pd  Pd27  1  0.50000000  0.25000000  0.03823000  1.0
  Pd  Pd28  1  0.00000000  0.75000000  0.90077000  1.0
  Pd  Pd29  1  0.00000000  0.75000000  0.03823000  1.0
  Pd  Pd30  1  0.50000000  0.75000000  0.86885000  1.0
  Pd  Pd31  1  0.50000000  0.75000000  0.03823000  1.0
  C  C32  1  0.00000000  0.24995000  0.82674000  1.0
  O  O33  1  0.00000000  0.24996000  0.78260000  1.0
