# generated using pymatgen
data_Y8In8Ge8Pd8CO
_symmetry_space_group_name_H-M   Pm
_cell_length_a   8.87204000
_cell_length_b   9.45024000
_cell_length_c   25.95260000
_cell_angle_alpha   90.00000000
_cell_angle_beta   90.00000000
_cell_angle_gamma   90.00000000
_symmetry_Int_Tables_number   6
_chemical_formula_structural   Y8In8Ge8Pd8CO
_chemical_formula_sum   'Y8 In8 Ge8 Pd8 C1 O1'
_cell_volume   2175.94143572
_cell_formula_units_Z   1
loop_
 _symmetry_equiv_pos_site_id
 _symmetry_equiv_pos_as_xyz
  1  'x, y, z'
  2  '-x+1/2, -y, z'
  3  '-x+1/2, y, z'
  4  'x, -y, z'
loop_
 _atom_site_type_symbol
 _atom_site_label
 _atom_site_symmetry_multiplicity
 _atom_site_fract_x
 _atom_site_fract_y
 _atom_site_fract_z
 _atom_site_occupancy
  Y  Y0  2  0.25000000  0.25003000  0.88532000  1.0
  Y  Y1  2  0.25000000  0.26848000  0.04690000  1.0
  Y  Y2  2  0.75000000  0.25003000  0.88532000  1.0
  Y  Y3  2  0.75000000  0.26607000  0.04857000  1.0
  In  In4  2  0.00000000  0.00000000  0.88532000  1.0
  In  In5  2  0.00000000  0.50000000  0.88532000  1.0
  In  In6  2  0.50121000  0.50000000  0.02590000  1.0
  In  In7  2  0.50363000  0.00000000  0.03492000  1.0
  Ge  Ge8  4  0.00000000  0.25003000  0.96177000  1.0
  Ge  Ge9  4  0.00003000  0.35798000  0.12356000  1.0
  Pd  Pd10  1  0.24999000  0.00000000  0.09649000  1.0
  Pd  Pd11  1  0.25000000  0.00000000  0.96177000  1.0
  Pd  Pd12  1  0.25000000  0.50000000  0.13103000  1.0
  Pd  Pd13  1  0.25000000  0.50000000  0.96177000  1.0
  Pd  Pd14  1  0.75000000  0.00000000  0.09923000  1.0
  Pd  Pd15  1  0.75000000  0.00000000  0.96177000  1.0
  Pd  Pd16  1  0.75000000  0.50000000  0.13115000  1.0
  Pd  Pd17  1  0.75000000  0.50000000  0.96177000  1.0
  C  C18  1  0.24995000  0.00000000  0.17326000  1.0
  O  O19  1  0.24996000  0.00000000  0.21740000  1.0
