# generated using pymatgen
data_ZrRu
_symmetry_space_group_name_H-M   'P 1'
_cell_length_a   3.27361500
_cell_length_b   4.62959000
_cell_length_c   26.94440000
_cell_angle_alpha   90.00000000
_cell_angle_beta   90.00000000
_cell_angle_gamma   90.00000000
_symmetry_Int_Tables_number   1
_chemical_formula_structural   ZrRu
_chemical_formula_sum   'Zr4 Ru4'
_cell_volume   408.35572670
_cell_formula_units_Z   4
loop_
 _symmetry_equiv_pos_site_id
 _symmetry_equiv_pos_as_xyz
  1  'x, y, z'
loop_
 _atom_site_type_symbol
 _atom_site_label
 _atom_site_symmetry_multiplicity
 _atom_site_fract_x
 _atom_site_fract_y
 _atom_site_fract_z
 _atom_site_occupancy
  Zr  Zr0  1  0.50000000  0.50000000  0.87113000  1.0
  Zr  Zr1  1  0.50000000  0.00000000  0.95704000  1.0
  Zr  Zr2  1  0.50000000  0.50000000  0.04493000  1.0
  Zr  Zr3  1  0.50000000  0.00000000  0.13121000  1.0
  Ru  Ru4  1  0.00000000  0.00000000  0.87113000  1.0
  Ru  Ru5  1  0.00000000  0.50000000  0.95704000  1.0
  Ru  Ru6  1  0.00000000  0.00000000  0.04415000  1.0
  Ru  Ru7  1  0.00000000  0.50000000  0.12369750  1.0
