# generated using pymatgen
data_Li8Al8Cu8Ge8CO
_symmetry_space_group_name_H-M   'P 1'
_cell_length_a   7.61632000
_cell_length_b   7.78580000
_cell_length_c   25.83060000
_cell_angle_alpha   90.00000000
_cell_angle_beta   90.00000000
_cell_angle_gamma   90.00000000
_symmetry_Int_Tables_number   1
_chemical_formula_structural   Li8Al8Cu8Ge8CO
_chemical_formula_sum   'Li8 Al8 Cu8 Ge8 C1 O1'
_cell_volume   1531.73247562
_cell_formula_units_Z   1
loop_
 _symmetry_equiv_pos_site_id
 _symmetry_equiv_pos_as_xyz
  1  'x, y, z'
loop_
 _atom_site_type_symbol
 _atom_site_label
 _atom_site_symmetry_multiplicity
 _atom_site_fract_x
 _atom_site_fract_y
 _atom_site_fract_z
 _atom_site_occupancy
  Li  Li0  1  0.00000000  0.00000000  0.03762000  1.0
  Li  Li1  1  0.00000000  0.00000000  0.88714000  1.0
  Li  Li2  1  0.50000000  0.00000000  0.03762000  1.0
  Li  Li3  1  0.50000000  0.00000000  0.88714000  1.0
  Li  Li4  1  0.00000000  0.50000000  0.03762000  1.0
  Li  Li5  1  0.00000000  0.50000000  0.88714000  1.0
  Li  Li6  1  0.50000000  0.50000000  0.03762000  1.0
  Li  Li7  1  0.50000000  0.50000000  0.88714000  1.0
  Al  Al8  1  0.00000000  0.75000000  0.11286000  1.0
  Al  Al9  1  0.00000000  0.75000000  0.96238000  1.0
  Al  Al10  1  0.50000000  0.75000000  0.11286000  1.0
  Al  Al11  1  0.50000000  0.75000000  0.96238000  1.0
  Al  Al12  1  0.00000000  0.25000000  0.11286000  1.0
  Al  Al13  1  0.00000000  0.25000000  0.96238000  1.0
  Al  Al14  1  0.50000000  0.25000000  0.11286000  1.0
  Al  Al15  1  0.50000000  0.25000000  0.96238000  1.0
  Cu  Cu16  1  0.25000000  0.00000000  0.11286000  1.0
  Cu  Cu17  1  0.25000000  0.00000000  0.96238000  1.0
  Cu  Cu18  1  0.75000000  0.00000000  0.11286000  1.0
  Cu  Cu19  1  0.75000000  0.00000000  0.96238000  1.0
  Cu  Cu20  1  0.25000000  0.50000000  0.11286000  1.0
  Cu  Cu21  1  0.25000000  0.50000000  0.96238000  1.0
  Cu  Cu22  1  0.75000000  0.50000000  0.11286000  1.0
  Cu  Cu23  1  0.75000000  0.50000000  0.96238000  1.0
  Ge  Ge24  1  0.25000000  0.75000000  0.03762000  1.0
  Ge  Ge25  1  0.25000000  0.75000000  0.88714000  1.0
  Ge  Ge26  1  0.75000000  0.75000000  0.03762000  1.0
  Ge  Ge27  1  0.75000000  0.75000000  0.88714000  1.0
  Ge  Ge28  1  0.25000000  0.25000000  0.03762000  1.0
  Ge  Ge29  1  0.25000000  0.25000000  0.88714000  1.0
  Ge  Ge30  1  0.75000000  0.25000000  0.03762000  1.0
  Ge  Ge31  1  0.75000000  0.25000000  0.88714000  1.0
  C  C32  1  0.00000000  0.00000000  0.81358000  1.0
  O  O33  1  0.00000000  0.00000000  0.76906000  1.0
