# generated using pymatgen
data_Li8Y8Ag8Sn8C
_symmetry_space_group_name_H-M   'P 1'
_cell_length_a   10.05810000
_cell_length_b   7.11214000
_cell_length_c   27.54360000
_cell_angle_alpha   90.00000000
_cell_angle_beta   90.00000000
_cell_angle_gamma   90.00000000
_symmetry_Int_Tables_number   1
_chemical_formula_structural   Li8Y8Ag8Sn8C
_chemical_formula_sum   'Li8 Y8 Ag8 Sn8 C1'
_cell_volume   1970.32083091
_cell_formula_units_Z   1
loop_
 _symmetry_equiv_pos_site_id
 _symmetry_equiv_pos_as_xyz
  1  'x, y, z'
loop_
 _atom_site_type_symbol
 _atom_site_label
 _atom_site_symmetry_multiplicity
 _atom_site_fract_x
 _atom_site_fract_y
 _atom_site_fract_z
 _atom_site_occupancy
  Li  Li0  1  0.00000000  0.25000000  0.04565000  1.0
  Li  Li1  1  0.50000000  0.25000000  0.04565000  1.0
  Li  Li2  1  0.25000000  0.75000000  0.13694000  1.0
  Li  Li3  1  0.75000000  0.75000000  0.13694000  1.0
  Li  Li4  1  0.50000000  0.26044000  0.86481000  1.0
  Li  Li5  1  0.00000000  0.27518000  0.86966000  1.0
  Li  Li6  1  0.74828000  0.74749000  0.95513000  1.0
  Li  Li7  1  0.25172000  0.74749000  0.95513000  1.0
  Y  Y8  1  0.00000000  0.75000000  0.04565000  1.0
  Y  Y9  1  0.50000000  0.75000000  0.04565000  1.0
  Y  Y10  1  0.25000000  0.25000000  0.13694000  1.0
  Y  Y11  1  0.75000000  0.25000000  0.13694000  1.0
  Y  Y12  1  0.50000000  0.78407000  0.86748000  1.0
  Y  Y13  1  0.00000000  0.69169000  0.84908000  1.0
  Y  Y14  1  0.75413000  0.24445000  0.95282000  1.0
  Y  Y15  1  0.24587000  0.24445000  0.95282000  1.0
  Ag  Ag16  1  0.00000000  0.00000000  0.13694000  1.0
  Ag  Ag17  1  0.50000000  0.00000000  0.13694000  1.0
  Ag  Ag18  1  0.75000000  0.50000000  0.04565000  1.0
  Ag  Ag19  1  0.25000000  0.50000000  0.04565000  1.0
  Ag  Ag20  1  0.50000000  0.01505000  0.95742000  1.0
  Ag  Ag21  1  0.00000000  0.95902000  0.94470000  1.0
  Ag  Ag22  1  0.26727000  0.50034000  0.86587000  1.0
  Ag  Ag23  1  0.73273000  0.50034000  0.86587000  1.0
  Sn  Sn24  1  0.25000000  0.00000000  0.04565000  1.0
  Sn  Sn25  1  0.75000000  0.00000000  0.04565000  1.0
  Sn  Sn26  1  0.50000000  0.50000000  0.13694000  1.0
  Sn  Sn27  1  0.00000000  0.50000000  0.13694000  1.0
  Sn  Sn28  1  0.77356000  0.01770000  0.85221000  1.0
  Sn  Sn29  1  0.22644000  0.01770000  0.85221000  1.0
  Sn  Sn30  1  0.00000000  0.51247000  0.95299000  1.0
  Sn  Sn31  1  0.50000000  0.50190000  0.95150000  1.0
  C  C32  1  0.00000000  0.99692000  0.85914000  1.0
