# generated using pymatgen
data_LiAl2Rh
_symmetry_space_group_name_H-M   Pmm2
_cell_length_a   4.27082500
_cell_length_b   6.03986000
_cell_length_c   26.40620000
_cell_angle_alpha   90.00000000
_cell_angle_beta   90.00000000
_cell_angle_gamma   90.00000000
_symmetry_Int_Tables_number   25
_chemical_formula_structural   LiAl2Rh
_chemical_formula_sum   'Li4 Al8 Rh4'
_cell_volume   681.15281638
_cell_formula_units_Z   4
loop_
 _symmetry_equiv_pos_site_id
 _symmetry_equiv_pos_as_xyz
  1  'x, y, z'
  2  '-x, -y, z'
  3  '-x, y, z'
  4  'x, -y, z'
loop_
 _atom_site_type_symbol
 _atom_site_label
 _atom_site_symmetry_multiplicity
 _atom_site_fract_x
 _atom_site_fract_y
 _atom_site_fract_z
 _atom_site_occupancy
  Li  Li0  1  0.00000000  0.00000000  0.12130000  1.0
  Li  Li1  1  0.00000000  0.00000000  0.96354000  1.0
  Li  Li2  1  0.50000000  0.50000000  0.04043000  1.0
  Li  Li3  1  0.50000000  0.50000000  0.86540000  1.0
  Al  Al4  2  0.00000000  0.23207000  0.88165000  1.0
  Al  Al5  2  0.00000000  0.25000000  0.04043000  1.0
  Al  Al6  2  0.50000000  0.25000000  0.12130000  1.0
  Al  Al7  2  0.50000000  0.25310000  0.95862000  1.0
  Rh  Rh8  1  0.00000000  0.50000000  0.12130000  1.0
  Rh  Rh9  1  0.00000000  0.50000000  0.96026000  1.0
  Rh  Rh10  1  0.50000000  0.00000000  0.04043000  1.0
  Rh  Rh11  1  0.50000000  0.00000000  0.88354000  1.0
