data_image0
_chemical_formula_structural       Li8Y8Cu8Pd8C
_chemical_formula_sum              "Li8 Y8 Cu8 Pd8 C1"
_cell_length_a       6.67076
_cell_length_b       9.43388
_cell_length_c       27.0754
_cell_angle_alpha    90
_cell_angle_beta     90
_cell_angle_gamma    90

_space_group_name_H-M_alt    "P 1"
_space_group_IT_number       1

loop_
  _space_group_symop_operation_xyz
  'x, y, z'

loop_
  _atom_site_type_symbol
  _atom_site_label
  _atom_site_symmetry_multiplicity
  _atom_site_fract_x
  _atom_site_fract_y
  _atom_site_fract_z
  _atom_site_occupancy
  Li  Li1       1.0  0.25000  0.00000  0.95645  1.0000
  Li  Li2       1.0  0.25000  0.50000  0.95645  1.0000
  Li  Li3       1.0  0.75000  0.25000  0.86934  1.0000
  Li  Li4       1.0  0.75000  0.75000  0.86934  1.0000
  Li  Li5       1.0  0.19961  0.47536  0.13602  1.0000
  Li  Li6       1.0  0.19960  0.02464  0.13603  1.0000
  Li  Li7       1.0  0.75568  0.75000  0.04063  1.0000
  Li  Li8       1.0  0.73338  0.25000  0.04715  1.0000
  Y   Y1        1.0  0.75000  0.00000  0.95645  1.0000
  Y   Y2        1.0  0.75000  0.50000  0.95645  1.0000
  Y   Y3        1.0  0.25000  0.25000  0.86934  1.0000
  Y   Y4        1.0  0.25000  0.75000  0.86934  1.0000
  Y   Y5        1.0  0.70068  0.52316  0.13455  1.0000
  Y   Y6        1.0  0.70067  0.97684  0.13455  1.0000
  Y   Y7        1.0  0.26679  0.74999  0.04445  1.0000
  Y   Y8        1.0  0.22354  0.25000  0.04681  1.0000
  Cu  Cu1       1.0  0.00000  0.00000  0.86934  1.0000
  Cu  Cu2       1.0  0.00000  0.50000  0.86934  1.0000
  Cu  Cu3       1.0  0.50000  0.75000  0.95645  1.0000
  Cu  Cu4       1.0  0.50000  0.25000  0.95645  1.0000
  Cu  Cu5       1.0  0.96831  0.51550  0.05030  1.0000
  Cu  Cu6       1.0  0.96833  0.98450  0.05030  1.0000
  Cu  Cu7       1.0  0.49986  0.25001  0.13153  1.0000
  Cu  Cu8       1.0  0.37378  0.75001  0.14675  1.0000
  Pd  Pd1       1.0  0.00000  0.25000  0.95645  1.0000
  Pd  Pd2       1.0  0.00000  0.75000  0.95645  1.0000
  Pd  Pd3       1.0  0.50000  0.50000  0.86934  1.0000
  Pd  Pd4       1.0  0.50000  0.00000  0.86934  1.0000
  Pd  Pd5       1.0  0.98972  0.75000  0.12104  1.0000
  Pd  Pd6       1.0  0.91379  0.25000  0.13174  1.0000
  Pd  Pd7       1.0  0.50570  0.00782  0.04241  1.0000
  Pd  Pd8       1.0  0.50570  0.49217  0.04241  1.0000
  C   C1        1.0  0.21670  0.25000  0.13347  1.0000
