# generated using pymatgen
data_Li8Y8Cu8Pd8C
_symmetry_space_group_name_H-M   'P 1'
_cell_length_a   9.43388000
_cell_length_b   6.67076000
_cell_length_c   27.07540000
_cell_angle_alpha   90.00000000
_cell_angle_beta   90.00000000
_cell_angle_gamma   90.00000000
_symmetry_Int_Tables_number   1
_chemical_formula_structural   Li8Y8Cu8Pd8C
_chemical_formula_sum   'Li8 Y8 Cu8 Pd8 C1'
_cell_volume   1703.88604108
_cell_formula_units_Z   1
loop_
 _symmetry_equiv_pos_site_id
 _symmetry_equiv_pos_as_xyz
  1  'x, y, z'
loop_
 _atom_site_type_symbol
 _atom_site_label
 _atom_site_symmetry_multiplicity
 _atom_site_fract_x
 _atom_site_fract_y
 _atom_site_fract_z
 _atom_site_occupancy
  Li  Li0  1  0.75000000  0.25000000  0.04355000  1.0
  Li  Li1  1  0.25000000  0.25000000  0.04355000  1.0
  Li  Li2  1  0.00000000  0.75000000  0.13066000  1.0
  Li  Li3  1  0.50000000  0.75000000  0.13066000  1.0
  Li  Li4  1  0.22536000  0.19961000  0.86398000  1.0
  Li  Li5  1  0.77464000  0.19961000  0.86398000  1.0
  Li  Li6  1  0.50000000  0.75568000  0.95937000  1.0
  Li  Li7  1  0.00000000  0.73338000  0.95285000  1.0
  Y  Y8  1  0.75000000  0.75000000  0.04355000  1.0
  Y  Y9  1  0.25000000  0.75000000  0.04355000  1.0
  Y  Y10  1  0.00000000  0.25000000  0.13066000  1.0
  Y  Y11  1  0.50000000  0.25000000  0.13066000  1.0
  Y  Y12  1  0.27316000  0.70068000  0.86545000  1.0
  Y  Y13  1  0.72684000  0.70068000  0.86545000  1.0
  Y  Y14  1  0.50000000  0.26679000  0.95555000  1.0
  Y  Y15  1  0.00000000  0.22354000  0.95319000  1.0
  Cu  Cu16  1  0.75000000  0.00000000  0.13066000  1.0
  Cu  Cu17  1  0.25000000  0.00000000  0.13066000  1.0
  Cu  Cu18  1  0.50000000  0.50000000  0.04355000  1.0
  Cu  Cu19  1  0.00000000  0.50000000  0.04355000  1.0
  Cu  Cu20  1  0.26550000  0.96831000  0.94970000  1.0
  Cu  Cu21  1  0.73450000  0.96831000  0.94970000  1.0
  Cu  Cu22  1  0.00000000  0.49986000  0.86847000  1.0
  Cu  Cu23  1  0.50000000  0.37378000  0.85325000  1.0
  Pd  Pd24  1  0.00000000  1.00000000  0.04355000  1.0
  Pd  Pd25  1  0.50000000  0.00000000  0.04355000  1.0
  Pd  Pd26  1  0.25000000  0.50000000  0.13066000  1.0
  Pd  Pd27  1  0.75000000  0.50000000  0.13066000  1.0
  Pd  Pd28  1  0.50000000  0.98972000  0.87896000  1.0
  Pd  Pd29  1  0.00000000  0.91379000  0.86826000  1.0
  Pd  Pd30  1  0.75782000  0.50570000  0.95759000  1.0
  Pd  Pd31  1  0.24218000  0.50570000  0.95759000  1.0
  C  C32  1  0.00000000  0.21670000  0.86653000  1.0
