# generated using pymatgen
data_Li8Y8Cu8Pd8C
_symmetry_space_group_name_H-M   Pm
_cell_length_a   6.67076000
_cell_length_b   9.43388000
_cell_length_c   27.07540000
_cell_angle_alpha   90.00000000
_cell_angle_beta   90.00000000
_cell_angle_gamma   90.00000000
_symmetry_Int_Tables_number   6
_chemical_formula_structural   Li8Y8Cu8Pd8C
_chemical_formula_sum   'Li8 Y8 Cu8 Pd8 C1'
_cell_volume   1703.88604108
_cell_formula_units_Z   1
loop_
 _symmetry_equiv_pos_site_id
 _symmetry_equiv_pos_as_xyz
  1  'x, y, z'
  2  'x, -y, z'
loop_
 _atom_site_type_symbol
 _atom_site_label
 _atom_site_symmetry_multiplicity
 _atom_site_fract_x
 _atom_site_fract_y
 _atom_site_fract_z
 _atom_site_occupancy
  Li  Li0  2  0.19961000  0.22536000  0.13602000  1.0
  Li  Li1  2  0.25000000  0.25000000  0.95645000  1.0
  Li  Li2  1  0.73338000  0.00000000  0.04715000  1.0
  Li  Li3  1  0.75000000  0.00000000  0.86934000  1.0
  Li  Li4  1  0.75000000  0.50000000  0.86934000  1.0
  Li  Li5  1  0.75568000  0.50000000  0.04063000  1.0
  Y  Y6  2  0.70068000  0.27316000  0.13455000  1.0
  Y  Y7  2  0.75000000  0.25000000  0.95645000  1.0
  Y  Y8  1  0.22354000  0.00000000  0.04681000  1.0
  Y  Y9  1  0.25000000  0.00000000  0.86934000  1.0
  Y  Y10  1  0.25000000  0.50000000  0.86934000  1.0
  Y  Y11  1  0.26679000  0.50000000  0.04445000  1.0
  Cu  Cu12  2  0.00000000  0.25000000  0.86934000  1.0
  Cu  Cu13  2  0.96831000  0.26550000  0.05030000  1.0
  Cu  Cu14  1  0.37378000  0.50000000  0.14675000  1.0
  Cu  Cu15  1  0.49986000  0.00000000  0.13153000  1.0
  Cu  Cu16  1  0.50000000  0.00000000  0.95645000  1.0
  Cu  Cu17  1  0.50000000  0.50000000  0.95645000  1.0
  Pd  Pd18  2  0.50000000  0.25000000  0.86934000  1.0
  Pd  Pd19  2  0.50570000  0.24218000  0.04241000  1.0
  Pd  Pd20  1  -0.00000000  0.00000000  0.95645000  1.0
  Pd  Pd21  1  0.00000000  0.50000000  0.95645000  1.0
  Pd  Pd22  1  0.91379000  0.00000000  0.13174000  1.0
  Pd  Pd23  1  0.98972000  0.50000000  0.12104000  1.0
  C  C24  1  0.21670000  0.00000000  0.13347000  1.0
