# generated using pymatgen
data_LiCuAgGe
_symmetry_space_group_name_H-M   'P 1'
_cell_length_a   6.23049000
_cell_length_b   4.40562000
_cell_length_c   26.60840000
_cell_angle_alpha   90.00000000
_cell_angle_beta   90.00000000
_cell_angle_gamma   90.00000000
_symmetry_Int_Tables_number   1
_chemical_formula_structural   LiCuAgGe
_chemical_formula_sum   'Li4 Cu4 Ag4 Ge4'
_cell_volume   730.37853105
_cell_formula_units_Z   4
loop_
 _symmetry_equiv_pos_site_id
 _symmetry_equiv_pos_as_xyz
  1  'x, y, z'
loop_
 _atom_site_type_symbol
 _atom_site_label
 _atom_site_symmetry_multiplicity
 _atom_site_fract_x
 _atom_site_fract_y
 _atom_site_fract_z
 _atom_site_occupancy
  Li  Li0  1  0.75000000  0.00000000  0.95861000  1.0
  Li  Li1  1  0.25000000  0.50000000  0.87582000  1.0
  Li  Li2  1  0.76523000  0.00000000  0.13276000  1.0
  Li  Li3  1  0.25797000  0.50000000  0.03902000  1.0
  Cu  Cu4  1  0.00000000  0.50000000  0.95861000  1.0
  Cu  Cu5  1  0.50000000  0.00000000  0.87582000  1.0
  Cu  Cu6  1  0.01963000  0.50000000  0.11672000  1.0
  Cu  Cu7  1  0.49395000  0.00000000  0.05152000  1.0
  Ag  Ag8  1  0.00000000  0.00000000  0.87582000  1.0
  Ag  Ag9  1  0.50000000  0.50000000  0.95861000  1.0
  Ag  Ag10  1  0.00529000  0.00000000  0.04373000  1.0
  Ag  Ag11  1  0.47986000  0.50000000  0.12823000  1.0
  Ge  Ge12  1  0.25000000  0.00000000  0.95861000  1.0
  Ge  Ge13  1  0.75000000  0.50000000  0.87582000  1.0
  Ge  Ge14  1  0.22963000  0.00000000  0.13197000  1.0
  Ge  Ge15  1  0.74011000  0.50000000  0.04657000  1.0
