# generated using pymatgen
data_Li8Mg8Sb8Pd8C
_symmetry_space_group_name_H-M   Pm
_cell_length_a   6.57147000
_cell_length_b   9.29346000
_cell_length_c   26.97010000
_cell_angle_alpha   90.00000000
_cell_angle_beta   90.00000000
_cell_angle_gamma   90.00000000
_symmetry_Int_Tables_number   6
_chemical_formula_structural   Li8Mg8Sb8Pd8C
_chemical_formula_sum   'Li8 Mg8 Sb8 Pd8 C1'
_cell_volume   1647.10968319
_cell_formula_units_Z   1
loop_
 _symmetry_equiv_pos_site_id
 _symmetry_equiv_pos_as_xyz
  1  'x, y, z'
  2  'x, -y, z'
loop_
 _atom_site_type_symbol
 _atom_site_label
 _atom_site_symmetry_multiplicity
 _atom_site_fract_x
 _atom_site_fract_y
 _atom_site_fract_z
 _atom_site_occupancy
  Li  Li0  2  0.00000000  0.25000000  0.87078000  1.0
  Li  Li1  2  0.00119000  0.24948000  0.04690000  1.0
  Li  Li2  1  0.48838000  0.50000000  0.14050000  1.0
  Li  Li3  1  0.50000000  0.00000000  0.95693000  1.0
  Li  Li4  1  0.50000000  0.50000000  0.95693000  1.0
  Li  Li5  1  0.55430000  0.00000000  0.16446000  1.0
  Mg  Mg6  2  0.24417000  0.23289000  0.13734000  1.0
  Mg  Mg7  2  0.25000000  0.25000000  0.95693000  1.0
  Mg  Mg8  1  0.72935000  0.00000000  0.04658000  1.0
  Mg  Mg9  1  0.74351000  0.50000000  0.04686000  1.0
  Mg  Mg10  1  0.75000000  0.00000000  0.87078000  1.0
  Mg  Mg11  1  0.75000000  0.50000000  0.87078000  1.0
  Sb  Sb12  2  0.74173000  0.26315000  0.13205000  1.0
  Sb  Sb13  2  0.75000000  0.25000000  0.95693000  1.0
  Sb  Sb14  1  0.25000000  0.00000000  0.87078000  1.0
  Sb  Sb15  1  0.25000000  0.50000000  0.87078000  1.0
  Sb  Sb16  1  0.25730000  0.50000000  0.04300000  1.0
  Sb  Sb17  1  0.26750000  0.00000000  0.05126000  1.0
  Pd  Pd18  2  0.49722000  0.25291000  0.03840000  1.0
  Pd  Pd19  2  0.50000000  0.25000000  0.87078000  1.0
  Pd  Pd20  1  0.00000000  0.00000000  0.95693000  1.0
  Pd  Pd21  1  0.00000000  0.50000000  0.95693000  1.0
  Pd  Pd22  1  0.01840000  0.50000000  0.12283000  1.0
  Pd  Pd23  1  0.94097000  0.00000000  0.12778000  1.0
  C  C24  1  0.26849000  0.00000000  0.13562000  1.0
