# generated using pymatgen
data_Li4Al4Ag4Ge4CO
_symmetry_space_group_name_H-M   'P 1'
_cell_length_a   8.02734000
_cell_length_b   5.75991000
_cell_length_c   24.29680000
_cell_angle_alpha   90.00000000
_cell_angle_beta   90.00000000
_cell_angle_gamma   90.00000000
_symmetry_Int_Tables_number   1
_chemical_formula_structural   Li4Al4Ag4Ge4CO
_chemical_formula_sum   'Li4 Al4 Ag4 Ge4 C1 O1'
_cell_volume   1123.40521171
_cell_formula_units_Z   1
loop_
 _symmetry_equiv_pos_site_id
 _symmetry_equiv_pos_as_xyz
  1  'x, y, z'
loop_
 _atom_site_type_symbol
 _atom_site_label
 _atom_site_symmetry_multiplicity
 _atom_site_fract_x
 _atom_site_fract_y
 _atom_site_fract_z
 _atom_site_occupancy
  Li  Li0  1  0.00000000  0.22418000  0.02947000  1.0
  Li  Li1  1  0.00000000  0.68029000  0.90786000  1.0
  Li  Li2  1  0.50000000  0.22418000  0.02947000  1.0
  Li  Li3  1  0.50000000  0.67202000  0.89918000  1.0
  Al  Al4  1  0.74999000  0.50000000  0.08842000  1.0
  Al  Al5  1  0.73570000  0.93211000  0.96594000  1.0
  Al  Al6  1  0.25001000  0.50000000  0.08842000  1.0
  Al  Al7  1  0.26430000  0.93211000  0.96594000  1.0
  Ag  Ag8  1  0.74999000  0.00000000  0.08842000  1.0
  Ag  Ag9  1  0.74593000  0.44281000  0.96320000  1.0
  Ag  Ag10  1  0.25001000  0.00000000  0.08842000  1.0
  Ag  Ag11  1  0.25407000  0.44281000  0.96320000  1.0
  Ge  Ge12  1  0.00000000  0.72418000  0.02947000  1.0
  Ge  Ge13  1  0.00000000  0.16256000  0.91482000  1.0
  Ge  Ge14  1  0.50000000  0.72418000  0.02947000  1.0
  Ge  Ge15  1  0.50000000  0.16741000  0.91144000  1.0
  C  C16  1  0.00000000  0.19842000  0.83558000  1.0
  O  O17  1  0.00000000  0.19291000  0.78763000  1.0
