# generated using pymatgen
data_Li8Zn8Ag8Ge8C
_symmetry_space_group_name_H-M   'P 1'
_cell_length_a   8.98822000
_cell_length_b   6.35563000
_cell_length_c   26.74120000
_cell_angle_alpha   90.00000000
_cell_angle_beta   90.00000000
_cell_angle_gamma   90.00000000
_symmetry_Int_Tables_number   1
_chemical_formula_structural   Li8Zn8Ag8Ge8C
_chemical_formula_sum   'Li8 Zn8 Ag8 Ge8 C1'
_cell_volume   1527.61246111
_cell_formula_units_Z   1
loop_
 _symmetry_equiv_pos_site_id
 _symmetry_equiv_pos_as_xyz
  1  'x, y, z'
loop_
 _atom_site_type_symbol
 _atom_site_label
 _atom_site_symmetry_multiplicity
 _atom_site_fract_x
 _atom_site_fract_y
 _atom_site_fract_z
 _atom_site_occupancy
  Li  Li0  1  0.00000000  0.75000000  0.04201000  1.0
  Li  Li1  1  0.50000000  0.75000000  0.04201000  1.0
  Li  Li2  1  0.25000000  0.25000000  0.12604000  1.0
  Li  Li3  1  0.75000000  0.25000000  0.12604000  1.0
  Li  Li4  1  0.50000000  0.79089000  0.86195000  1.0
  Li  Li5  1  0.00000000  0.70138000  0.82794000  1.0
  Li  Li6  1  0.75005000  0.25219000  0.95484000  1.0
  Li  Li7  1  0.24995000  0.25219000  0.95484000  1.0
  Zn  Zn8  1  0.00000000  0.25000000  0.04201000  1.0
  Zn  Zn9  1  0.50000000  0.25000000  0.04201000  1.0
  Zn  Zn10  1  0.25000000  0.75000000  0.12604000  1.0
  Zn  Zn11  1  0.75000000  0.75000000  0.12604000  1.0
  Zn  Zn12  1  0.50000000  0.24976000  0.87009000  1.0
  Zn  Zn13  1  0.00000000  0.31876000  0.86905000  1.0
  Zn  Zn14  1  0.74783000  0.74427000  0.95815000  1.0
  Zn  Zn15  1  0.25217000  0.74427000  0.95815000  1.0
  Ag  Ag16  1  0.00000000  0.00000000  0.12604000  1.0
  Ag  Ag17  1  0.50000000  0.00000000  0.12604000  1.0
  Ag  Ag18  1  0.75000000  0.50000000  0.04201000  1.0
  Ag  Ag19  1  0.25000000  0.50000000  0.04201000  1.0
  Ag  Ag20  1  0.50000000  0.99763000  0.95727000  1.0
  Ag  Ag21  1  0.00000000  0.98468000  0.94920000  1.0
  Ag  Ag22  1  0.26368000  0.51693000  0.86678000  1.0
  Ag  Ag23  1  0.73632000  0.51693000  0.86678000  1.0
  Ge  Ge24  1  0.25000000  0.00000000  0.04201000  1.0
  Ge  Ge25  1  0.75000000  0.00000000  0.04201000  1.0
  Ge  Ge26  1  0.50000000  0.50000000  0.12604000  1.0
  Ge  Ge27  1  0.00000000  0.50000000  0.12604000  1.0
  Ge  Ge28  1  0.78600000  0.96269000  0.86471000  1.0
  Ge  Ge29  1  0.21400000  0.96269000  0.86471000  1.0
  Ge  Ge30  1  0.00000000  0.51225000  0.95651000  1.0
  Ge  Ge31  1  0.50000000  0.51826000  0.95062000  1.0
  C  C32  1  0.00000000  0.00434000  0.85622000  1.0
