# generated using pymatgen
data_Sc8Ga8Ge8Pd8CO
_symmetry_space_group_name_H-M   Pmm2
_cell_length_a   7.83718000
_cell_length_b   8.58414000
_cell_length_c   26.06500000
_cell_angle_alpha   90.00000000
_cell_angle_beta   90.00000000
_cell_angle_gamma   90.00000000
_symmetry_Int_Tables_number   25
_chemical_formula_structural   Sc8Ga8Ge8Pd8CO
_chemical_formula_sum   'Sc8 Ga8 Ge8 Pd8 C1 O1'
_cell_volume   1753.53461273
_cell_formula_units_Z   1
loop_
 _symmetry_equiv_pos_site_id
 _symmetry_equiv_pos_as_xyz
  1  'x, y, z'
  2  '-x, -y, z'
  3  '-x, y, z'
  4  'x, -y, z'
loop_
 _atom_site_type_symbol
 _atom_site_label
 _atom_site_symmetry_multiplicity
 _atom_site_fract_x
 _atom_site_fract_y
 _atom_site_fract_z
 _atom_site_occupancy
  Sc  Sc0  2  0.00000000  0.24998000  0.11634000  1.0
  Sc  Sc1  2  0.00000000  0.25007000  0.96199000  1.0
  Sc  Sc2  2  0.50000000  0.24998000  0.11634000  1.0
  Sc  Sc3  2  0.50000000  0.25452000  0.96184000  1.0
  Ga  Ga4  1  0.00000000  0.00000000  0.03878000  1.0
  Ga  Ga5  1  0.00000000  0.00000000  0.89007000  1.0
  Ga  Ga6  1  0.00000000  0.50000000  0.03878000  1.0
  Ga  Ga7  1  0.00000000  0.50000000  0.88065000  1.0
  Ga  Ga8  1  0.50000000  0.00000000  0.03878000  1.0
  Ga  Ga9  1  0.50000000  0.00000000  0.87877000  1.0
  Ga  Ga10  1  0.50000000  0.50000000  0.03878000  1.0
  Ga  Ga11  1  0.50000000  0.50000000  0.87949000  1.0
  Ge  Ge12  4  0.24999000  0.24998000  0.03878000  1.0
  Ge  Ge13  4  0.25084000  0.27709000  0.87918000  1.0
  Pd  Pd14  2  0.24783000  0.50000000  0.96095000  1.0
  Pd  Pd15  2  0.24999000  0.00000000  0.11634000  1.0
  Pd  Pd16  2  0.24999000  0.50000000  0.11634000  1.0
  Pd  Pd17  2  0.26012000  0.00000000  0.95622000  1.0
  C  C18  1  0.00000000  0.00000000  0.80925000  1.0
  O  O19  1  0.00000000  0.00000000  0.76533000  1.0
