# generated using pymatgen
data_Ni12Pt4C
_symmetry_space_group_name_H-M   'P 1'
_cell_length_a   7.35611000
_cell_length_b   5.20155000
_cell_length_c   23.90120000
_cell_angle_alpha   90.00000000
_cell_angle_beta   90.00000000
_cell_angle_gamma   90.00000000
_symmetry_Int_Tables_number   1
_chemical_formula_structural   Ni12Pt4C
_chemical_formula_sum   'Ni12 Pt4 C1'
_cell_volume   914.53577370
_cell_formula_units_Z   1
loop_
 _symmetry_equiv_pos_site_id
 _symmetry_equiv_pos_as_xyz
  1  'x, y, z'
loop_
 _atom_site_type_symbol
 _atom_site_label
 _atom_site_symmetry_multiplicity
 _atom_site_fract_x
 _atom_site_fract_y
 _atom_site_fract_z
 _atom_site_occupancy
  Ni  Ni0  1  1.00000000  0.50000000  0.08161000  1.0
  Ni  Ni1  1  0.25000000  0.74998000  0.02720000  1.0
  Ni  Ni2  1  0.25000000  0.25002000  0.02720000  1.0
  Ni  Ni3  1  0.00002000  0.00000000  0.97649000  1.0
  Ni  Ni4  1  0.20131000  0.25663000  0.91276000  1.0
  Ni  Ni5  1  0.20131000  0.74337000  0.91276000  1.0
  Ni  Ni6  1  0.50000000  0.50000000  0.08161000  1.0
  Ni  Ni7  1  0.75000000  0.74998000  0.02720000  1.0
  Ni  Ni8  1  0.75000000  0.25002000  0.02720000  1.0
  Ni  Ni9  1  0.49998000  0.00000000  0.96505000  1.0
  Ni  Ni10  1  0.79883000  0.25658000  0.91273000  1.0
  Ni  Ni11  1  0.79883000  0.74342000  0.91273000  1.0
  Pt  Pt12  1  0.00000000  0.00000000  0.08161000  1.0
  Pt  Pt13  1  0.00001000  0.50000000  0.98114000  1.0
  Pt  Pt14  1  0.50000000  0.00000000  0.08161000  1.0
  Pt  Pt15  1  0.50001000  0.50000000  0.96390000  1.0
  C  C16  1  0.00008000  0.50000000  0.89671000  1.0
