# generated using pymatgen
data_Ni12Pt4C
_symmetry_space_group_name_H-M   Pm
_cell_length_a   7.35611000
_cell_length_b   5.20155000
_cell_length_c   23.90120000
_cell_angle_alpha   90.00000000
_cell_angle_beta   90.00000000
_cell_angle_gamma   90.00000000
_symmetry_Int_Tables_number   6
_chemical_formula_structural   Ni12Pt4C
_chemical_formula_sum   'Ni12 Pt4 C1'
_cell_volume   914.53577370
_cell_formula_units_Z   1
loop_
 _symmetry_equiv_pos_site_id
 _symmetry_equiv_pos_as_xyz
  1  'x, y, z'
  2  'x, -y, z'
loop_
 _atom_site_type_symbol
 _atom_site_label
 _atom_site_symmetry_multiplicity
 _atom_site_fract_x
 _atom_site_fract_y
 _atom_site_fract_z
 _atom_site_occupancy
  Ni  Ni0  2  0.20131000  0.25663000  0.08724000  1.0
  Ni  Ni1  2  0.25000000  0.25002000  0.97280000  1.0
  Ni  Ni2  2  0.75000000  0.25002000  0.97280000  1.0
  Ni  Ni3  2  0.79883000  0.25658000  0.08727000  1.0
  Ni  Ni4  1  -0.00000000  0.50000000  0.91839000  1.0
  Ni  Ni5  1  0.00002000  0.00000000  0.02351000  1.0
  Ni  Ni6  1  0.49998000  0.00000000  0.03495000  1.0
  Ni  Ni7  1  0.50000000  0.50000000  0.91839000  1.0
  Pt  Pt8  1  0.00000000  0.00000000  0.91839000  1.0
  Pt  Pt9  1  0.00001000  0.50000000  0.01886000  1.0
  Pt  Pt10  1  0.50000000  0.00000000  0.91839000  1.0
  Pt  Pt11  1  0.50001000  0.50000000  0.03610000  1.0
  C  C12  1  0.00008000  0.50000000  0.10329000  1.0
