data_image0
_chemical_formula_structural       FeAlFeAlFeAlFeAlFeAlFeAlFeAlFeAlCO
_chemical_formula_sum              "Fe8 Al8 C1 O1"
_cell_length_a       5.75078
_cell_length_b       5.75078
_cell_length_c       24.3131
_cell_angle_alpha    90
_cell_angle_beta     90
_cell_angle_gamma    90

_space_group_name_H-M_alt    "P 1"
_space_group_IT_number       1

loop_
  _space_group_symop_operation_xyz
  'x, y, z'

loop_
  _atom_site_type_symbol
  _atom_site_label
  _atom_site_symmetry_multiplicity
  _atom_site_fract_x
  _atom_site_fract_y
  _atom_site_fract_z
  _atom_site_occupancy
  Fe  Fe1       1.0  0.00000  0.00000  0.90100  1.0000
  Al  Al1       1.0  0.25000  0.25000  0.96013  1.0000
  Fe  Fe2       1.0  0.00000  0.00000  0.01926  1.0000
  Al  Al2       1.0  0.25000  0.25000  0.07840  1.0000
  Fe  Fe3       1.0  0.00000  0.50000  0.90100  1.0000
  Al  Al3       1.0  0.25000  0.75000  0.96013  1.0000
  Fe  Fe4       1.0  0.00000  0.50000  0.01926  1.0000
  Al  Al4       1.0  0.25000  0.75000  0.07840  1.0000
  Fe  Fe5       1.0  0.50000  0.00000  0.90100  1.0000
  Al  Al5       1.0  0.75000  0.25000  0.96013  1.0000
  Fe  Fe6       1.0  0.50000  0.00000  0.01926  1.0000
  Al  Al6       1.0  0.75000  0.25000  0.07840  1.0000
  Fe  Fe7       1.0  0.50000  0.50000  0.90100  1.0000
  Al  Al7       1.0  0.75000  0.75000  0.96013  1.0000
  Fe  Fe8       1.0  0.50000  0.50000  0.01926  1.0000
  Al  Al8       1.0  0.75000  0.75000  0.07840  1.0000
  C   C1        1.0  0.25000  0.25000  0.15654  1.0000
  O   O1        1.0  0.25000  0.25000  0.20384  1.0000
