data_image0
_chemical_formula_structural       Zn16Rh16CO
_chemical_formula_sum              "Zn16 Rh16 C1 O1"
_cell_length_a       6.06651
_cell_length_b       8.57934
_cell_length_c       26.4345
_cell_angle_alpha    90
_cell_angle_beta     90
_cell_angle_gamma    90

_space_group_name_H-M_alt    "P 1"
_space_group_IT_number       1

loop_
  _space_group_symop_operation_xyz
  'x, y, z'

loop_
  _atom_site_type_symbol
  _atom_site_label
  _atom_site_symmetry_multiplicity
  _atom_site_fract_x
  _atom_site_fract_y
  _atom_site_fract_z
  _atom_site_occupancy
  Zn  Zn1       1.0  0.25000  0.25000  0.87829  1.0000
  Zn  Zn2       1.0  0.25000  0.00000  0.95943  1.0000
  Zn  Zn3       1.0  0.24722  0.24999  0.04049  1.0000
  Zn  Zn4       1.0  0.25101  0.99966  0.12386  1.0000
  Zn  Zn5       1.0  0.25000  0.75000  0.87829  1.0000
  Zn  Zn6       1.0  0.25000  0.50000  0.95943  1.0000
  Zn  Zn7       1.0  0.25156  0.75001  0.03945  1.0000
  Zn  Zn8       1.0  0.25101  0.50035  0.12386  1.0000
  Zn  Zn9       1.0  0.75000  0.25000  0.87829  1.0000
  Zn  Zn10      1.0  0.75000  0.00000  0.95943  1.0000
  Zn  Zn11      1.0  0.75278  0.24999  0.04049  1.0000
  Zn  Zn12      1.0  0.74899  0.99966  0.12386  1.0000
  Zn  Zn13      1.0  0.75000  0.75000  0.87829  1.0000
  Zn  Zn14      1.0  0.75000  0.50000  0.95943  1.0000
  Zn  Zn15      1.0  0.74844  0.75001  0.03945  1.0000
  Zn  Zn16      1.0  0.74899  0.50035  0.12386  1.0000
  Rh  Rh1       1.0  0.00000  0.00000  0.87829  1.0000
  Rh  Rh2       1.0  0.00000  0.25000  0.95943  1.0000
  Rh  Rh3       1.0  0.00000  0.00026  0.04066  1.0000
  Rh  Rh4       1.0  1.00000  0.25000  0.12662  1.0000
  Rh  Rh5       1.0  0.00000  0.50000  0.87829  1.0000
  Rh  Rh6       1.0  0.00000  0.75000  0.95943  1.0000
  Rh  Rh7       1.0  1.00000  0.49974  0.04066  1.0000
  Rh  Rh8       1.0  0.00000  0.75000  0.11780  1.0000
  Rh  Rh9       1.0  0.50000  0.00000  0.87829  1.0000
  Rh  Rh10      1.0  0.50000  0.25000  0.95943  1.0000
  Rh  Rh11      1.0  0.50000  0.00150  0.04063  1.0000
  Rh  Rh12      1.0  0.50000  0.25000  0.11894  1.0000
  Rh  Rh13      1.0  0.50000  0.50000  0.87829  1.0000
  Rh  Rh14      1.0  0.50000  0.75000  0.95943  1.0000
  Rh  Rh15      1.0  0.50000  0.49849  0.04062  1.0000
  Rh  Rh16      1.0  0.50000  0.75000  0.11840  1.0000
  C   C1        1.0  0.00000  0.25000  0.19674  1.0000
  O   O1        1.0  0.00000  0.25000  0.24055  1.0000
