# generated using pymatgen
data_Zn16Rh16CO
_symmetry_space_group_name_H-M   Pmm2
_cell_length_a   6.06651000
_cell_length_b   8.57934000
_cell_length_c   26.43450000
_cell_angle_alpha   90.00000000
_cell_angle_beta   90.00000000
_cell_angle_gamma   90.00000000
_symmetry_Int_Tables_number   25
_chemical_formula_structural   Zn16Rh16CO
_chemical_formula_sum   'Zn16 Rh16 C1 O1'
_cell_volume   1375.82721974
_cell_formula_units_Z   1
loop_
 _symmetry_equiv_pos_site_id
 _symmetry_equiv_pos_as_xyz
  1  'x, y, z'
  2  '-x, -y, z'
  3  '-x, y, z'
  4  'x, -y, z'
loop_
 _atom_site_type_symbol
 _atom_site_label
 _atom_site_symmetry_multiplicity
 _atom_site_fract_x
 _atom_site_fract_y
 _atom_site_fract_z
 _atom_site_occupancy
  Zn  Zn0  4  0.25000000  0.25000000  0.95943000  1.0
  Zn  Zn1  4  0.25101000  0.25034000  0.12386000  1.0
  Zn  Zn2  2  0.24722000  0.00000000  0.04049000  1.0
  Zn  Zn3  2  0.25000000  0.00000000  0.87829000  1.0
  Zn  Zn4  2  0.25000000  0.50000000  0.87829000  1.0
  Zn  Zn5  2  0.25156000  0.50000000  0.03945000  1.0
  Rh  Rh6  2  0.00000000  0.24974000  0.04066000  1.0
  Rh  Rh7  2  0.00000000  0.25000000  0.87829000  1.0
  Rh  Rh8  2  0.50000000  0.24850000  0.04063000  1.0
  Rh  Rh9  2  0.50000000  0.25000000  0.87829000  1.0
  Rh  Rh10  1  0.00000000  0.00000000  0.12662000  1.0
  Rh  Rh11  1  0.00000000  0.00000000  0.95943000  1.0
  Rh  Rh12  1  0.00000000  0.50000000  0.11780000  1.0
  Rh  Rh13  1  0.00000000  0.50000000  0.95943000  1.0
  Rh  Rh14  1  0.50000000  0.00000000  0.11894000  1.0
  Rh  Rh15  1  0.50000000  0.00000000  0.95943000  1.0
  Rh  Rh16  1  0.50000000  0.50000000  0.11840000  1.0
  Rh  Rh17  1  0.50000000  0.50000000  0.95943000  1.0
  C  C18  1  0.00000000  0.00000000  0.19674000  1.0
  O  O19  1  0.00000000  0.00000000  0.24055000  1.0
