data_image0
_chemical_formula_structural       Al16Os16C
_chemical_formula_sum              "Al16 Os16 C1"
_cell_length_a       6.03636
_cell_length_b       8.5367
_cell_length_c       26.4025
_cell_angle_alpha    90
_cell_angle_beta     90
_cell_angle_gamma    90

_space_group_name_H-M_alt    "P 1"
_space_group_IT_number       1

loop_
  _space_group_symop_operation_xyz
  'x, y, z'

loop_
  _atom_site_type_symbol
  _atom_site_label
  _atom_site_symmetry_multiplicity
  _atom_site_fract_x
  _atom_site_fract_y
  _atom_site_fract_z
  _atom_site_occupancy
  Al  Al1       1.0  0.00000  0.00000  0.87875  1.0000
  Al  Al2       1.0  0.00000  0.25000  0.95958  1.0000
  Al  Al3       1.0  0.00398  0.99970  0.04078  1.0000
  Al  Al4       1.0  0.95498  0.25000  0.11867  1.0000
  Al  Al5       1.0  0.00000  0.50000  0.87875  1.0000
  Al  Al6       1.0  0.00000  0.75000  0.95958  1.0000
  Al  Al7       1.0  0.00398  0.50030  0.04078  1.0000
  Al  Al8       1.0  0.01516  0.75000  0.12207  1.0000
  Al  Al9       1.0  0.50000  0.00000  0.87875  1.0000
  Al  Al10      1.0  0.50000  0.25000  0.95958  1.0000
  Al  Al11      1.0  0.49601  0.99970  0.04078  1.0000
  Al  Al12      1.0  0.54489  0.25000  0.11868  1.0000
  Al  Al13      1.0  0.50000  0.50000  0.87875  1.0000
  Al  Al14      1.0  0.50000  0.75000  0.95958  1.0000
  Al  Al15      1.0  0.49601  0.50030  0.04078  1.0000
  Al  Al16      1.0  0.48482  0.75000  0.12207  1.0000
  Os  Os1       1.0  0.25000  0.25000  0.87875  1.0000
  Os  Os2       1.0  0.25000  0.00000  0.95958  1.0000
  Os  Os3       1.0  0.24999  0.25000  0.03892  1.0000
  Os  Os4       1.0  0.24994  0.03212  0.12485  1.0000
  Os  Os5       1.0  0.25000  0.75000  0.87875  1.0000
  Os  Os6       1.0  0.25000  0.50000  0.95958  1.0000
  Os  Os7       1.0  0.24999  0.75000  0.04022  1.0000
  Os  Os8       1.0  0.24994  0.46788  0.12485  1.0000
  Os  Os9       1.0  0.75000  0.25000  0.87875  1.0000
  Os  Os10      1.0  0.75000  0.00000  0.95958  1.0000
  Os  Os11      1.0  0.74998  0.25000  0.03571  1.0000
  Os  Os12      1.0  0.74999  0.98857  0.11917  1.0000
  Os  Os13      1.0  0.75000  0.75000  0.87875  1.0000
  Os  Os14      1.0  0.75000  0.50000  0.95958  1.0000
  Os  Os15      1.0  0.75001  0.75000  0.03892  1.0000
  Os  Os16      1.0  0.74999  0.51143  0.11917  1.0000
  C   C1        1.0  0.24988  0.25000  0.15095  1.0000
