# generated using pymatgen
data_Al16Os16C
_symmetry_space_group_name_H-M   'P 1'
_cell_length_a   8.53670000
_cell_length_b   6.03636000
_cell_length_c   26.40250000
_cell_angle_alpha   90.00000000
_cell_angle_beta   90.00000000
_cell_angle_gamma   90.00000000
_symmetry_Int_Tables_number   1
_chemical_formula_structural   Al16Os16C
_chemical_formula_sum   'Al16 Os16 C1'
_cell_volume   1360.53651896
_cell_formula_units_Z   1
loop_
 _symmetry_equiv_pos_site_id
 _symmetry_equiv_pos_as_xyz
  1  'x, y, z'
loop_
 _atom_site_type_symbol
 _atom_site_label
 _atom_site_symmetry_multiplicity
 _atom_site_fract_x
 _atom_site_fract_y
 _atom_site_fract_z
 _atom_site_occupancy
  Al  Al0  1  0.75000000  0.00000000  0.12125000  1.0
  Al  Al1  1  0.00000000  0.00000000  0.04042000  1.0
  Al  Al2  1  0.74970000  0.00398000  0.95922000  1.0
  Al  Al3  1  0.00000000  0.95498000  0.88133000  1.0
  Al  Al4  1  0.25000000  0.00000000  0.12125000  1.0
  Al  Al5  1  0.50000000  0.00000000  0.04042000  1.0
  Al  Al6  1  0.25030000  0.00398000  0.95922000  1.0
  Al  Al7  1  0.50000000  0.01516000  0.87793000  1.0
  Al  Al8  1  0.75000000  0.50000000  0.12125000  1.0
  Al  Al9  1  0.00000000  0.50000000  0.04042000  1.0
  Al  Al10  1  0.74970000  0.49601000  0.95922000  1.0
  Al  Al11  1  0.00000000  0.54489000  0.88132000  1.0
  Al  Al12  1  0.25000000  0.50000000  0.12125000  1.0
  Al  Al13  1  0.50000000  0.50000000  0.04042000  1.0
  Al  Al14  1  0.25030000  0.49601000  0.95922000  1.0
  Al  Al15  1  0.50000000  0.48482000  0.87793000  1.0
  Os  Os16  1  0.00000000  0.25000000  0.12125000  1.0
  Os  Os17  1  0.75000000  0.25000000  0.04042000  1.0
  Os  Os18  1  0.00000000  0.24999000  0.96108000  1.0
  Os  Os19  1  0.78212000  0.24994000  0.87515000  1.0
  Os  Os20  1  0.50000000  0.25000000  0.12125000  1.0
  Os  Os21  1  0.25000000  0.25000000  0.04042000  1.0
  Os  Os22  1  0.50000000  0.24999000  0.95978000  1.0
  Os  Os23  1  0.21788000  0.24994000  0.87515000  1.0
  Os  Os24  1  0.00000000  0.75000000  0.12125000  1.0
  Os  Os25  1  0.75000000  0.75000000  0.04042000  1.0
  Os  Os26  1  0.00000000  0.74998000  0.96429000  1.0
  Os  Os27  1  0.73857000  0.74999000  0.88083000  1.0
  Os  Os28  1  0.50000000  0.75000000  0.12125000  1.0
  Os  Os29  1  0.25000000  0.75000000  0.04042000  1.0
  Os  Os30  1  0.50000000  0.75001000  0.96108000  1.0
  Os  Os31  1  0.26143000  0.74999000  0.88083000  1.0
  C  C32  1  0.00000000  0.24988000  0.84905000  1.0
