# generated using pymatgen
data_Hf8In8Cu16C
_symmetry_space_group_name_H-M   'P 1'
_cell_length_a   8.98033000
_cell_length_b   6.35005000
_cell_length_c   26.73520000
_cell_angle_alpha   90.00000000
_cell_angle_beta   90.00000000
_cell_angle_gamma   90.00000000
_symmetry_Int_Tables_number   1
_chemical_formula_structural   Hf8In8Cu16C
_chemical_formula_sum   'Hf8 In8 Cu16 C1'
_cell_volume   1524.58933776
_cell_formula_units_Z   1
loop_
 _symmetry_equiv_pos_site_id
 _symmetry_equiv_pos_as_xyz
  1  'x, y, z'
loop_
 _atom_site_type_symbol
 _atom_site_label
 _atom_site_symmetry_multiplicity
 _atom_site_fract_x
 _atom_site_fract_y
 _atom_site_fract_z
 _atom_site_occupancy
  Hf  Hf0  1  0.75000000  0.00000000  0.12596000  1.0
  Hf  Hf1  1  0.00000000  0.50000000  0.04199000  1.0
  Hf  Hf2  1  0.50000000  0.50000000  0.04199000  1.0
  Hf  Hf3  1  0.25000000  0.00000000  0.12596000  1.0
  Hf  Hf4  1  0.25410000  0.00250000  0.95157000  1.0
  Hf  Hf5  1  0.50000000  0.46785000  0.87539000  1.0
  Hf  Hf6  1  0.00000000  0.51277000  0.87890000  1.0
  Hf  Hf7  1  0.74590000  0.00250000  0.95157000  1.0
  In  In8  1  0.50000000  1.00000000  0.04199000  1.0
  In  In9  1  0.75000000  0.50000000  0.12596000  1.0
  In  In10  1  0.00000000  0.00000000  0.04199000  1.0
  In  In11  1  0.25000000  0.50000000  0.12596000  1.0
  In  In12  1  0.00000000  0.90320000  0.82859000  1.0
  In  In13  1  0.24913000  0.49834000  0.95702000  1.0
  In  In14  1  0.50000000  0.00025000  0.85880000  1.0
  In  In15  1  0.75087000  0.49834000  0.95702000  1.0
  Cu  Cu16  1  0.75000000  0.25000000  0.04199000  1.0
  Cu  Cu17  1  0.25000000  0.75000000  0.04199000  1.0
  Cu  Cu18  1  0.75000000  0.75000000  0.04199000  1.0
  Cu  Cu19  1  0.25000000  0.25000000  0.04199000  1.0
  Cu  Cu20  1  0.50000000  0.75000000  0.12596000  1.0
  Cu  Cu21  1  0.00000000  0.25000000  0.12596000  1.0
  Cu  Cu22  1  0.50000000  0.25000000  0.12596000  1.0
  Cu  Cu23  1  0.00000000  0.75000000  0.12596000  1.0
  Cu  Cu24  1  0.22543000  0.23122000  0.86011000  1.0
  Cu  Cu25  1  0.73865000  0.73263000  0.86847000  1.0
  Cu  Cu26  1  0.26135000  0.73263000  0.86847000  1.0
  Cu  Cu27  1  0.77457000  0.23122000  0.86011000  1.0
  Cu  Cu28  1  0.00000000  0.77737000  0.95806000  1.0
  Cu  Cu29  1  0.50000000  0.24318000  0.95843000  1.0
  Cu  Cu30  1  0.00000000  0.23055000  0.95591000  1.0
  Cu  Cu31  1  0.50000000  0.75295000  0.95424000  1.0
  C  C32  1  0.00000000  0.23535000  0.84164000  1.0
