# generated using pymatgen
data_Hf8In8Cu16C
_symmetry_space_group_name_H-M   Pm
_cell_length_a   6.35005000
_cell_length_b   8.98033000
_cell_length_c   26.73520000
_cell_angle_alpha   90.00000000
_cell_angle_beta   90.00000000
_cell_angle_gamma   90.00000000
_symmetry_Int_Tables_number   6
_chemical_formula_structural   Hf8In8Cu16C
_chemical_formula_sum   'Hf8 In8 Cu16 C1'
_cell_volume   1524.58933776
_cell_formula_units_Z   1
loop_
 _symmetry_equiv_pos_site_id
 _symmetry_equiv_pos_as_xyz
  1  'x, y, z'
  2  'x, -y, z'
loop_
 _atom_site_type_symbol
 _atom_site_label
 _atom_site_symmetry_multiplicity
 _atom_site_fract_x
 _atom_site_fract_y
 _atom_site_fract_z
 _atom_site_occupancy
  Hf  Hf0  2  0.00000000  0.25000000  0.87404000  1.0
  Hf  Hf1  2  0.00250000  0.25410000  0.04843000  1.0
  Hf  Hf2  1  0.46785000  0.50000000  0.12461000  1.0
  Hf  Hf3  1  0.50000000  0.00000000  0.95801000  1.0
  Hf  Hf4  1  0.50000000  0.50000000  0.95801000  1.0
  Hf  Hf5  1  0.51277000  0.00000000  0.12110000  1.0
  In  In6  2  0.49834000  0.24913000  0.04298000  1.0
  In  In7  2  0.50000000  0.25000000  0.87404000  1.0
  In  In8  1  -0.00000000  0.50000000  0.95801000  1.0
  In  In9  1  0.00000000  0.00000000  0.95801000  1.0
  In  In10  1  0.00025000  0.50000000  0.14120000  1.0
  In  In11  1  0.90320000  0.00000000  0.17141000  1.0
  Cu  Cu12  2  0.23122000  0.22543000  0.13989000  1.0
  Cu  Cu13  2  0.25000000  0.25000000  0.95801000  1.0
  Cu  Cu14  2  0.73263000  0.26135000  0.13153000  1.0
  Cu  Cu15  2  0.75000000  0.25000000  0.95801000  1.0
  Cu  Cu16  1  0.23055000  0.00000000  0.04409000  1.0
  Cu  Cu17  1  0.24318000  0.50000000  0.04157000  1.0
  Cu  Cu18  1  0.25000000  0.00000000  0.87404000  1.0
  Cu  Cu19  1  0.25000000  0.50000000  0.87404000  1.0
  Cu  Cu20  1  0.75000000  0.00000000  0.87404000  1.0
  Cu  Cu21  1  0.75000000  0.50000000  0.87404000  1.0
  Cu  Cu22  1  0.75295000  0.50000000  0.04576000  1.0
  Cu  Cu23  1  0.77737000  0.00000000  0.04194000  1.0
  C  C24  1  0.23535000  0.00000000  0.15836000  1.0
