# generated using pymatgen
data_Li8Sc8In8Pd8C
_symmetry_space_group_name_H-M   'P 1'
_cell_length_a   9.31984000
_cell_length_b   6.59012000
_cell_length_c   26.98990000
_cell_angle_alpha   90.00000000
_cell_angle_beta   90.00000000
_cell_angle_gamma   90.00000000
_symmetry_Int_Tables_number   1
_chemical_formula_structural   Li8Sc8In8Pd8C
_chemical_formula_sum   'Li8 Sc8 In8 Pd8 C1'
_cell_volume   1657.68899696
_cell_formula_units_Z   1
loop_
 _symmetry_equiv_pos_site_id
 _symmetry_equiv_pos_as_xyz
  1  'x, y, z'
loop_
 _atom_site_type_symbol
 _atom_site_label
 _atom_site_symmetry_multiplicity
 _atom_site_fract_x
 _atom_site_fract_y
 _atom_site_fract_z
 _atom_site_occupancy
  Li  Li0  1  0.00000000  0.75000000  0.04316000  1.0
  Li  Li1  1  0.50000000  0.75000000  0.04316000  1.0
  Li  Li2  1  0.25000000  0.25000000  0.12949000  1.0
  Li  Li3  1  0.75000000  0.25000000  0.12949000  1.0
  Li  Li4  1  0.50000000  0.61848000  0.81912000  1.0
  Li  Li5  1  0.00000000  0.74268000  0.83032000  1.0
  Li  Li6  1  0.74868000  0.26403000  0.95590000  1.0
  Li  Li7  1  0.25132000  0.26403000  0.95590000  1.0
  Sc  Sc8  1  0.25000000  1.00000000  0.04316000  1.0
  Sc  Sc9  1  0.75000000  1.00000000  0.04316000  1.0
  Sc  Sc10  1  0.50000000  0.50000000  0.12949000  1.0
  Sc  Sc11  1  0.00000000  0.50000000  0.12949000  1.0
  Sc  Sc12  1  0.73620000  0.96891000  0.87549000  1.0
  Sc  Sc13  1  0.26380000  0.96891000  0.87549000  1.0
  Sc  Sc14  1  0.00000000  0.52764000  0.94625000  1.0
  Sc  Sc15  1  0.50000000  0.51864000  0.94867000  1.0
  In  In16  1  0.00000000  0.00000000  0.12949000  1.0
  In  In17  1  0.50000000  1.00000000  0.12949000  1.0
  In  In18  1  0.75000000  0.50000000  0.04316000  1.0
  In  In19  1  0.25000000  0.50000000  0.04316000  1.0
  In  In20  1  0.50000000  0.00472000  0.95853000  1.0
  In  In21  1  0.00000000  0.00049000  0.95770000  1.0
  In  In22  1  0.24583000  0.49730000  0.86254000  1.0
  In  In23  1  0.75417000  0.49730000  0.86254000  1.0
  Pd  Pd24  1  0.00000000  0.25000000  0.04316000  1.0
  Pd  Pd25  1  0.50000000  0.25000000  0.04316000  1.0
  Pd  Pd26  1  0.25000000  0.75000000  0.12949000  1.0
  Pd  Pd27  1  0.75000000  0.75000000  0.12949000  1.0
  Pd  Pd28  1  0.50000000  0.24760000  0.87415000  1.0
  Pd  Pd29  1  0.00000000  0.16198000  0.86611000  1.0
  Pd  Pd30  1  0.74783000  0.74934000  0.95901000  1.0
  Pd  Pd31  1  0.25217000  0.74934000  0.95901000  1.0
  C  C32  1  0.00000000  0.46506000  0.86763000  1.0
