# generated using pymatgen
data_Mg8Ni16Sn8CO
_symmetry_space_group_name_H-M   'P 1'
_cell_length_a   6.22749000
_cell_length_b   8.80700000
_cell_length_c   26.60530000
_cell_angle_alpha   90.00000000
_cell_angle_beta   90.00000000
_cell_angle_gamma   90.00000000
_symmetry_Int_Tables_number   1
_chemical_formula_structural   Mg8Ni16Sn8CO
_chemical_formula_sum   'Mg8 Ni16 Sn8 C1 O1'
_cell_volume   1459.18109901
_cell_formula_units_Z   1
loop_
 _symmetry_equiv_pos_site_id
 _symmetry_equiv_pos_as_xyz
  1  'x, y, z'
loop_
 _atom_site_type_symbol
 _atom_site_label
 _atom_site_symmetry_multiplicity
 _atom_site_fract_x
 _atom_site_fract_y
 _atom_site_fract_z
 _atom_site_occupancy
  Mg  Mg0  1  0.00000000  0.75000000  0.87587000  1.0
  Mg  Mg1  1  0.50000000  0.00000000  0.95862000  1.0
  Mg  Mg2  1  0.50000000  0.50000000  0.95862000  1.0
  Mg  Mg3  1  0.00000000  0.25000000  0.87587000  1.0
  Mg  Mg4  1  0.00000000  0.24812000  0.03783000  1.0
  Mg  Mg5  1  0.50000000  0.50000000  0.12876000  1.0
  Mg  Mg6  1  0.50000000  0.00000000  0.13086000  1.0
  Mg  Mg7  1  0.00000000  0.75188000  0.03783000  1.0
  Ni  Ni8  1  0.25000000  0.75000000  0.95862000  1.0
  Ni  Ni9  1  0.75000000  0.25000000  0.95862000  1.0
  Ni  Ni10  1  0.75000000  0.75000000  0.95862000  1.0
  Ni  Ni11  1  0.25000000  0.25000000  0.95862000  1.0
  Ni  Ni12  1  0.75000000  0.50000000  0.87587000  1.0
  Ni  Ni13  1  0.25000000  0.00000000  0.87587000  1.0
  Ni  Ni14  1  0.25000000  0.50000000  0.87587000  1.0
  Ni  Ni15  1  0.75000000  0.00000000  0.87587000  1.0
  Ni  Ni16  1  0.22622000  0.25161000  0.11670000  1.0
  Ni  Ni17  1  0.77378000  0.74839000  0.11670000  1.0
  Ni  Ni18  1  0.77378000  0.25161000  0.11670000  1.0
  Ni  Ni19  1  0.22622000  0.74839000  0.11670000  1.0
  Ni  Ni20  1  0.74511000  0.00000000  0.04467000  1.0
  Ni  Ni21  1  0.24867000  0.50000000  0.04319000  1.0
  Ni  Ni22  1  0.25489000  0.00000000  0.04467000  1.0
  Ni  Ni23  1  0.75133000  0.50000000  0.04319000  1.0
  Sn  Sn24  1  0.00000000  0.50000000  0.95862000  1.0
  Sn  Sn25  1  0.50000000  0.75000000  0.87587000  1.0
  Sn  Sn26  1  0.00000000  0.00000000  0.95862000  1.0
  Sn  Sn27  1  0.50000000  0.25000000  0.87587000  1.0
  Sn  Sn28  1  0.00000000  0.00000000  0.12882000  1.0
  Sn  Sn29  1  0.50000000  0.25096000  0.04234000  1.0
  Sn  Sn30  1  0.00000000  0.50000000  0.12995000  1.0
  Sn  Sn31  1  0.50000000  0.74904000  0.04234000  1.0
  C  C32  1  0.50000000  0.00000000  0.21610000  1.0
  O  O33  1  0.50000000  0.00000000  0.25898000  1.0
