# generated using pymatgen
data_Li8Y8Ge8Pd8CO
_symmetry_space_group_name_H-M   'P 1'
_cell_length_a   9.26950000
_cell_length_b   6.55453000
_cell_length_c   26.95210000
_cell_angle_alpha   90.00000000
_cell_angle_beta   90.00000000
_cell_angle_gamma   90.00000000
_symmetry_Int_Tables_number   1
_chemical_formula_structural   Li8Y8Ge8Pd8CO
_chemical_formula_sum   'Li8 Y8 Ge8 Pd8 C1 O1'
_cell_volume   1637.53455691
_cell_formula_units_Z   1
loop_
 _symmetry_equiv_pos_site_id
 _symmetry_equiv_pos_as_xyz
  1  'x, y, z'
loop_
 _atom_site_type_symbol
 _atom_site_label
 _atom_site_symmetry_multiplicity
 _atom_site_fract_x
 _atom_site_fract_y
 _atom_site_fract_z
 _atom_site_occupancy
  Li  Li0  1  0.50000000  0.75000000  0.04299000  1.0
  Li  Li1  1  0.00000000  0.75000000  0.04299000  1.0
  Li  Li2  1  0.75001000  0.25000000  0.12897000  1.0
  Li  Li3  1  0.24999000  0.25000000  0.12897000  1.0
  Li  Li4  1  0.00000000  0.53653000  0.82239000  1.0
  Li  Li5  1  0.50000000  0.54808000  0.82487000  1.0
  Li  Li6  1  0.24973000  0.22767000  0.95208000  1.0
  Li  Li7  1  0.75027000  0.22767000  0.95208000  1.0
  Y  Y8  1  0.75001000  1.00000000  0.04299000  1.0
  Y  Y9  1  0.24999000  1.00000000  0.04299000  1.0
  Y  Y10  1  0.00000000  0.50000000  0.12897000  1.0
  Y  Y11  1  0.50000000  0.50000000  0.12897000  1.0
  Y  Y12  1  0.24206000  0.93871000  0.86877000  1.0
  Y  Y13  1  0.75794000  0.93871000  0.86877000  1.0
  Y  Y14  1  0.50000000  0.49785000  0.95116000  1.0
  Y  Y15  1  0.00000000  0.50205000  0.95299000  1.0
  Ge  Ge16  1  0.50000000  0.00000000  0.12897000  1.0
  Ge  Ge17  1  0.00000000  0.00000000  0.12897000  1.0
  Ge  Ge18  1  0.25001000  0.50000000  0.04299000  1.0
  Ge  Ge19  1  0.74999000  0.50000000  0.04299000  1.0
  Ge  Ge20  1  0.00000000  0.98516000  0.95774000  1.0
  Ge  Ge21  1  0.50000000  0.99439000  0.95695000  1.0
  Ge  Ge22  1  0.75153000  0.47418000  0.87205000  1.0
  Ge  Ge23  1  0.24847000  0.47418000  0.87205000  1.0
  Pd  Pd24  1  0.50000000  0.25000000  0.04299000  1.0
  Pd  Pd25  1  0.00000000  0.25000000  0.04299000  1.0
  Pd  Pd26  1  0.75001000  0.75000000  0.12897000  1.0
  Pd  Pd27  1  0.24999000  0.75000000  0.12897000  1.0
  Pd  Pd28  1  0.00000000  0.21130000  0.87731000  1.0
  Pd  Pd29  1  0.50000000  0.19616000  0.86744000  1.0
  Pd  Pd30  1  0.25096000  0.74846000  0.95942000  1.0
  Pd  Pd31  1  0.74904000  0.74846000  0.95942000  1.0
  C  C32  1  0.50000000  0.09240000  0.80019000  1.0
  O  O33  1  0.50000000  0.05896000  0.75743000  1.0
