# generated using pymatgen
data_Y8Mn8In8Pd8CO
_symmetry_space_group_name_H-M   'P 1'
_cell_length_a   6.85874000
_cell_length_b   9.69972000
_cell_length_c   27.27480000
_cell_angle_alpha   90.00000000
_cell_angle_beta   90.00000000
_cell_angle_gamma   90.00000000
_symmetry_Int_Tables_number   1
_chemical_formula_structural   Y8Mn8In8Pd8CO
_chemical_formula_sum   'Y8 Mn8 In8 Pd8 C1 O1'
_cell_volume   1814.53400918
_cell_formula_units_Z   1
loop_
 _symmetry_equiv_pos_site_id
 _symmetry_equiv_pos_as_xyz
  1  'x, y, z'
loop_
 _atom_site_type_symbol
 _atom_site_label
 _atom_site_symmetry_multiplicity
 _atom_site_fract_x
 _atom_site_fract_y
 _atom_site_fract_z
 _atom_site_occupancy
  Y  Y0  1  0.00000000  0.25000000  0.95555000  1.0
  Y  Y1  1  0.00000000  0.75000000  0.95555000  1.0
  Y  Y2  1  0.50000000  0.50000000  0.86664000  1.0
  Y  Y3  1  0.50000000  0.00000000  0.86664000  1.0
  Y  Y4  1  0.96295000  0.74996000  0.13458000  1.0
  Y  Y5  1  0.95666000  0.25010000  0.13700000  1.0
  Y  Y6  1  0.50590000  0.00134000  0.04673000  1.0
  Y  Y7  1  0.50590000  0.49867000  0.04673000  1.0
  Mn  Mn8  1  0.75000000  0.00000000  0.95555000  1.0
  Mn  Mn9  1  0.75000000  0.50000000  0.95555000  1.0
  Mn  Mn10  1  0.25000000  0.25000000  0.86664000  1.0
  Mn  Mn11  1  0.25000000  0.75000000  0.86664000  1.0
  Mn  Mn12  1  0.65792000  0.49221000  0.16091000  1.0
  Mn  Mn13  1  0.65821000  0.00789000  0.16089000  1.0
  Mn  Mn14  1  0.23814000  0.75000000  0.05116000  1.0
  Mn  Mn15  1  0.22367000  0.24999000  0.04757000  1.0
  In  In16  1  0.00000000  0.00000000  0.86664000  1.0
  In  In17  1  0.00000000  0.50000000  0.86664000  1.0
  In  In18  1  0.50000000  0.75000000  0.95555000  1.0
  In  In19  1  0.50000000  0.25000000  0.95555000  1.0
  In  In20  1  0.98896000  0.50192000  0.04497000  1.0
  In  In21  1  0.98895000  0.99808000  0.04498000  1.0
  In  In22  1  0.46339000  0.25000000  0.13069000  1.0
  In  In23  1  0.48167000  0.75006000  0.13815000  1.0
  Pd  Pd24  1  0.25000000  0.00000000  0.95555000  1.0
  Pd  Pd25  1  0.25000000  0.50000000  0.95555000  1.0
  Pd  Pd26  1  0.75000000  0.25000000  0.86664000  1.0
  Pd  Pd27  1  0.75000000  0.75000000  0.86664000  1.0
  Pd  Pd28  1  0.24722000  0.50536000  0.12489000  1.0
  Pd  Pd29  1  0.24721000  0.99468000  0.12490000  1.0
  Pd  Pd30  1  0.74984000  0.75000000  0.04224000  1.0
  Pd  Pd31  1  0.75553000  0.25000000  0.04059000  1.0
  C  C32  1  0.77541000  0.24959000  0.21186000  1.0
  O  O33  1  0.71125000  0.24954000  0.25183000  1.0
