# generated using pymatgen
data_Li4Al4Ge4Pd4CO
_symmetry_space_group_name_H-M   'P 1'
_cell_length_a   5.69495000
_cell_length_b   7.42946000
_cell_length_c   24.27100000
_cell_angle_alpha   90.00000000
_cell_angle_beta   90.00000000
_cell_angle_gamma   90.00000000
_symmetry_Int_Tables_number   1
_chemical_formula_structural   Li4Al4Ge4Pd4CO
_chemical_formula_sum   'Li4 Al4 Ge4 Pd4 C1 O1'
_cell_volume   1026.91579672
_cell_formula_units_Z   1
loop_
 _symmetry_equiv_pos_site_id
 _symmetry_equiv_pos_as_xyz
  1  'x, y, z'
loop_
 _atom_site_type_symbol
 _atom_site_label
 _atom_site_symmetry_multiplicity
 _atom_site_fract_x
 _atom_site_fract_y
 _atom_site_fract_z
 _atom_site_occupancy
  Li  Li0  1  0.46496000  0.00007000  0.90700000  1.0
  Li  Li1  1  0.00528000  0.00000000  0.02933000  1.0
  Li  Li2  1  0.47554000  0.49987000  0.90573000  1.0
  Li  Li3  1  0.00528000  0.50000000  0.02933000  1.0
  Al  Al4  1  0.95130000  0.99998000  0.91865000  1.0
  Al  Al5  1  0.50528000  0.00000000  0.02933000  1.0
  Al  Al6  1  0.97426000  0.49994000  0.91709000  1.0
  Al  Al7  1  0.50528000  0.50000000  0.02933000  1.0
  Ge  Ge8  1  0.23860000  0.75134000  0.96736000  1.0
  Ge  Ge9  1  0.75791000  0.75000000  0.08799000  1.0
  Ge  Ge10  1  0.23863000  0.24858000  0.96751000  1.0
  Ge  Ge11  1  0.75791000  0.25000000  0.08799000  1.0
  Pd  Pd12  1  0.73304000  0.74743000  0.96802000  1.0
  Pd  Pd13  1  0.25791000  0.75000000  0.08799000  1.0
  Pd  Pd14  1  0.73319000  0.25253000  0.96804000  1.0
  Pd  Pd15  1  0.25791000  0.25000000  0.08799000  1.0
  C  C16  1  0.05268000  0.00012000  0.84143000  1.0
  O  O17  1  0.09218000  0.00009000  0.79427000  1.0
