# generated using pymatgen
data_Li4Y4Sn4Ge4CO
_symmetry_space_group_name_H-M   'P 1'
_cell_length_a   8.60818000
_cell_length_b   6.35836000
_cell_length_c   24.74450000
_cell_angle_alpha   90.00000000
_cell_angle_beta   90.00000000
_cell_angle_gamma   90.00000000
_symmetry_Int_Tables_number   1
_chemical_formula_structural   Li4Y4Sn4Ge4CO
_chemical_formula_sum   'Li4 Y4 Sn4 Ge4 C1 O1'
_cell_volume   1354.36317128
_cell_formula_units_Z   1
loop_
 _symmetry_equiv_pos_site_id
 _symmetry_equiv_pos_as_xyz
  1  'x, y, z'
loop_
 _atom_site_type_symbol
 _atom_site_label
 _atom_site_symmetry_multiplicity
 _atom_site_fract_x
 _atom_site_fract_y
 _atom_site_fract_z
 _atom_site_occupancy
  Li  Li0  1  0.74999000  0.50000000  0.90413000  1.0
  Li  Li1  1  0.75060000  0.06192000  0.02831000  1.0
  Li  Li2  1  0.25001000  0.50000000  0.90413000  1.0
  Li  Li3  1  0.24940000  0.06192000  0.02831000  1.0
  Y  Y4  1  0.50000000  0.77517000  0.96804000  1.0
  Y  Y5  1  0.50000000  0.38128000  0.09629000  1.0
  Y  Y6  1  0.00000000  0.77517000  0.96804000  1.0
  Y  Y7  1  0.00000000  0.37766000  0.09584000  1.0
  Sn  Sn8  1  0.50000000  0.27517000  0.96804000  1.0
  Sn  Sn9  1  0.50000000  0.87109000  0.10805000  1.0
  Sn  Sn10  1  0.00000000  0.27517000  0.96804000  1.0
  Sn  Sn11  1  0.00000000  0.86778000  0.10657000  1.0
  Ge  Ge12  1  0.74999000  0.00000000  0.90413000  1.0
  Ge  Ge13  1  0.75150000  0.61937000  0.04516000  1.0
  Ge  Ge14  1  0.25001000  0.00000000  0.90413000  1.0
  Ge  Ge15  1  0.24850000  0.61937000  0.04516000  1.0
  C  C16  1  0.50000000  0.33528000  0.19661000  1.0
  O  O17  1  0.50000000  0.31714000  0.24276000  1.0
