# generated using pymatgen
data_LiCoGePd
_symmetry_space_group_name_H-M   Pmn2_1
_cell_length_a   4.16025000
_cell_length_b   26.24040000
_cell_length_c   5.88348000
_cell_angle_alpha   90.00000000
_cell_angle_beta   90.00000000
_cell_angle_gamma   90.00000000
_symmetry_Int_Tables_number   31
_chemical_formula_structural   LiCoGePd
_chemical_formula_sum   'Li4 Co4 Ge4 Pd4'
_cell_volume   642.27964956
_cell_formula_units_Z   4
loop_
 _symmetry_equiv_pos_site_id
 _symmetry_equiv_pos_as_xyz
  1  'x, y, z'
  2  '-x+1/2, -y, z+1/2'
  3  '-x, y, z'
  4  'x+1/2, -y, z+1/2'
loop_
 _atom_site_type_symbol
 _atom_site_label
 _atom_site_symmetry_multiplicity
 _atom_site_fract_x
 _atom_site_fract_y
 _atom_site_fract_z
 _atom_site_occupancy
  Li  Li0  2  0.00000000  0.11891000  0.25000000  1.0
  Li  Li1  2  0.00000000  0.96036000  0.25000000  1.0
  Co  Co2  2  0.00000000  0.03964000  0.00000000  1.0
  Co  Co3  2  0.00000000  0.88109000  0.00000000  1.0
  Ge  Ge4  2  0.00000000  0.11891000  0.75000000  1.0
  Ge  Ge5  2  0.00000000  0.96036000  0.75000000  1.0
  Pd  Pd6  2  0.00000000  0.03964000  0.50000000  1.0
  Pd  Pd7  2  0.00000000  0.88109000  0.50000000  1.0
