# generated using pymatgen
data_Li8Zn8Ge8Pd8CO
_symmetry_space_group_name_H-M   'P 1'
_cell_length_a   8.74708000
_cell_length_b   6.18512000
_cell_length_c   26.56030000
_cell_angle_alpha   90.00000000
_cell_angle_beta   90.00000000
_cell_angle_gamma   90.00000000
_symmetry_Int_Tables_number   1
_chemical_formula_structural   Li8Zn8Ge8Pd8CO
_chemical_formula_sum   'Li8 Zn8 Ge8 Pd8 C1 O1'
_cell_volume   1436.95843030
_cell_formula_units_Z   1
loop_
 _symmetry_equiv_pos_site_id
 _symmetry_equiv_pos_as_xyz
  1  'x, y, z'
loop_
 _atom_site_type_symbol
 _atom_site_label
 _atom_site_symmetry_multiplicity
 _atom_site_fract_x
 _atom_site_fract_y
 _atom_site_fract_z
 _atom_site_occupancy
  Li  Li0  1  0.75000000  0.75000000  0.04117000  1.0
  Li  Li1  1  0.25000000  0.75000000  0.04117000  1.0
  Li  Li2  1  0.00000000  0.25000000  0.12350000  1.0
  Li  Li3  1  0.50000000  0.25000000  0.12350000  1.0
  Li  Li4  1  0.25096000  0.73385000  0.86427000  1.0
  Li  Li5  1  0.74904000  0.73385000  0.86427000  1.0
  Li  Li6  1  0.50000000  0.24904000  0.95766000  1.0
  Li  Li7  1  0.00000000  0.24692000  0.95977000  1.0
  Zn  Zn8  1  0.00000000  0.00000000  0.04117000  1.0
  Zn  Zn9  1  0.50000000  0.00000000  0.04117000  1.0
  Zn  Zn10  1  0.25000000  0.50000000  0.12350000  1.0
  Zn  Zn11  1  0.75000000  0.50000000  0.12350000  1.0
  Zn  Zn12  1  0.50000000  0.00082000  0.87297000  1.0
  Zn  Zn13  1  0.00000000  0.02232000  0.87339000  1.0
  Zn  Zn14  1  0.74797000  0.51005000  0.95831000  1.0
  Zn  Zn15  1  0.25203000  0.51005000  0.95831000  1.0
  Ge  Ge16  1  0.75000000  0.00000000  0.12350000  1.0
  Ge  Ge17  1  0.25000000  0.00000000  0.12350000  1.0
  Ge  Ge18  1  0.50000000  0.50000000  0.04117000  1.0
  Ge  Ge19  1  0.00000000  0.50000000  0.04117000  1.0
  Ge  Ge20  1  0.24781000  0.98721000  0.95453000  1.0
  Ge  Ge21  1  0.75219000  0.98721000  0.95453000  1.0
  Ge  Ge22  1  0.00000000  0.47936000  0.87324000  1.0
  Ge  Ge23  1  0.50000000  0.49092000  0.86947000  1.0
  Pd  Pd24  1  0.75000000  0.25000000  0.04117000  1.0
  Pd  Pd25  1  0.25000000  0.25000000  0.04117000  1.0
  Pd  Pd26  1  0.00000000  0.75000000  0.12350000  1.0
  Pd  Pd27  1  0.50000000  0.75000000  0.12350000  1.0
  Pd  Pd28  1  0.25492000  0.25768000  0.88141000  1.0
  Pd  Pd29  1  0.74508000  0.25768000  0.88141000  1.0
  Pd  Pd30  1  0.50000000  0.74913000  0.95958000  1.0
  Pd  Pd31  1  0.00000000  0.74474000  0.95692000  1.0
  C  C32  1  0.00000000  0.78250000  0.81646000  1.0
  O  O33  1  0.00000000  0.76604000  0.77228000  1.0
