# generated using pymatgen
data_Ca8Pb24CO
_symmetry_space_group_name_H-M   P1
_cell_length_a   10.04260000
_cell_length_b   10.04260000
_cell_length_c   27.53190000
_cell_angle_alpha   90.00000000
_cell_angle_beta   90.00000000
_cell_angle_gamma   90.00000000
_symmetry_Int_Tables_number   1
_chemical_formula_structural   Ca8Pb24CO
_chemical_formula_sum   'Ca8 Pb24 C1 O1'
_cell_volume   2776.69714259
_cell_formula_units_Z   1
loop_
 _symmetry_equiv_pos_site_id
 _symmetry_equiv_pos_as_xyz
  1  'x, y, z'
loop_
 _atom_site_type_symbol
 _atom_site_label
 _atom_site_symmetry_multiplicity
 _atom_site_fract_x
 _atom_site_fract_y
 _atom_site_fract_z
 _atom_site_occupancy
  Ca  Ca0  1  0.00000000  0.00000000  0.95440000  1.0
  Ca  Ca1  1  0.00000000  0.50000000  0.95440000  1.0
  Ca  Ca2  1  0.00012000  0.50033000  0.13330000  1.0
  Ca  Ca3  1  0.49972000  0.49983000  0.13376000  1.0
  Ca  Ca4  1  0.50000000  0.00000000  0.95440000  1.0
  Ca  Ca5  1  0.50000000  0.50000000  0.95440000  1.0
  Ca  Ca6  1  0.50037000  0.99915000  0.13378000  1.0
  Ca  Ca7  1  0.99988000  0.99976000  0.13325000  1.0
  Pb  Pb8  1  0.00000000  0.25000000  0.86321000  1.0
  Pb  Pb9  1  0.00000000  0.75000000  0.86321000  1.0
  Pb  Pb10  1  0.00025000  0.75002000  0.04767000  1.0
  Pb  Pb11  1  0.00069000  0.25017000  0.04758000  1.0
  Pb  Pb12  1  0.24973000  0.24969000  0.13334000  1.0
  Pb  Pb13  1  0.24979000  0.75001000  0.13356000  1.0
  Pb  Pb14  1  0.25000000  0.00000000  0.86321000  1.0
  Pb  Pb15  1  0.25000000  0.25000000  0.95440000  1.0
  Pb  Pb16  1  0.25000000  0.50000000  0.86321000  1.0
  Pb  Pb17  1  0.25000000  0.75000000  0.95440000  1.0
  Pb  Pb18  1  0.25003000  0.49914000  0.04772000  1.0
  Pb  Pb19  1  0.25013000  0.00080000  0.04766000  1.0
  Pb  Pb20  1  0.49918000  0.24985000  0.04769000  1.0
  Pb  Pb21  1  0.49964000  0.74977000  0.04775000  1.0
  Pb  Pb22  1  0.50000000  0.25000000  0.86321000  1.0
  Pb  Pb23  1  0.50000000  0.75000000  0.86321000  1.0
  Pb  Pb24  1  0.74967000  0.49954000  0.04775000  1.0
  Pb  Pb25  1  0.74984000  0.24997000  0.13356000  1.0
  Pb  Pb26  1  0.74984000  0.74976000  0.13353000  1.0
  Pb  Pb27  1  0.74991000  0.00031000  0.04774000  1.0
  Pb  Pb28  1  0.75000000  0.00000000  0.86321000  1.0
  Pb  Pb29  1  0.75000000  0.25000000  0.95440000  1.0
  Pb  Pb30  1  0.75000000  0.50000000  0.86321000  1.0
  Pb  Pb31  1  0.75000000  0.75000000  0.95440000  1.0
  C  C32  1  0.27903000  0.27500000  0.30160000  1.0
  O  O33  1  0.23342000  0.23427000  0.33634000  1.0
