# generated using pymatgen
data_Zr16Ru16C
_symmetry_space_group_name_H-M   'P 1'
_cell_length_a   6.54723000
_cell_length_b   9.25918000
_cell_length_c   26.94440000
_cell_angle_alpha   90.00000000
_cell_angle_beta   90.00000000
_cell_angle_gamma   90.00000000
_symmetry_Int_Tables_number   1
_chemical_formula_structural   Zr16Ru16C
_chemical_formula_sum   'Zr16 Ru16 C1'
_cell_volume   1633.42290678
_cell_formula_units_Z   1
loop_
 _symmetry_equiv_pos_site_id
 _symmetry_equiv_pos_as_xyz
  1  'x, y, z'
loop_
 _atom_site_type_symbol
 _atom_site_label
 _atom_site_symmetry_multiplicity
 _atom_site_fract_x
 _atom_site_fract_y
 _atom_site_fract_z
 _atom_site_occupancy
  Zr  Zr0  1  0.00000000  0.00000000  0.87113000  1.0
  Zr  Zr1  1  0.00000000  0.25000000  0.95704000  1.0
  Zr  Zr2  1  0.00000000  0.00000000  0.04674000  1.0
  Zr  Zr3  1  0.00000000  0.25686000  0.13284000  1.0
  Zr  Zr4  1  0.00000000  0.50000000  0.87113000  1.0
  Zr  Zr5  1  0.00000000  0.75000000  0.95704000  1.0
  Zr  Zr6  1  0.00000000  0.50000000  0.04492000  1.0
  Zr  Zr7  1  0.00000000  0.74314000  0.13284000  1.0
  Zr  Zr8  1  0.50000000  0.00000000  0.87113000  1.0
  Zr  Zr9  1  0.50000000  0.25000000  0.95704000  1.0
  Zr  Zr10  1  0.50000000  0.00000000  0.04115000  1.0
  Zr  Zr11  1  0.50000000  0.25761000  0.13295000  1.0
  Zr  Zr12  1  0.50000000  0.50000000  0.87113000  1.0
  Zr  Zr13  1  0.50000000  0.75000000  0.95704000  1.0
  Zr  Zr14  1  0.50000000  0.50000000  0.04415000  1.0
  Zr  Zr15  1  0.50000000  0.74239000  0.13295000  1.0
  Ru  Ru16  1  0.75000000  0.75000000  0.87113000  1.0
  Ru  Ru17  1  0.75000000  0.00000000  0.95704000  1.0
  Ru  Ru18  1  0.74952000  0.75153000  0.04452000  1.0
  Ru  Ru19  1  0.72056000  0.00000000  0.12555000  1.0
  Ru  Ru20  1  0.75000000  0.25000000  0.87113000  1.0
  Ru  Ru21  1  0.75000000  0.50000000  0.95704000  1.0
  Ru  Ru22  1  0.74952000  0.24847000  0.04452000  1.0
  Ru  Ru23  1  0.74815000  0.50000000  0.12333000  1.0
  Ru  Ru24  1  0.25000000  0.75000000  0.87113000  1.0
  Ru  Ru25  1  0.25000000  0.00000000  0.95704000  1.0
  Ru  Ru26  1  0.25048000  0.75153000  0.04452000  1.0
  Ru  Ru27  1  0.27944000  0.00000000  0.12555000  1.0
  Ru  Ru28  1  0.25000000  0.25000000  0.87113000  1.0
  Ru  Ru29  1  0.25000000  0.50000000  0.95704000  1.0
  Ru  Ru30  1  0.25048000  0.24847000  0.04452000  1.0
  Ru  Ru31  1  0.25185000  0.50000000  0.12333000  1.0
  C  C32  1  0.00000000  0.00000000  0.14388000  1.0
