# generated using pymatgen
data_Li8Cu16Ge8CO
_symmetry_space_group_name_H-M   Pm
_cell_length_a   5.94410000
_cell_length_b   8.40623000
_cell_length_c   26.30470000
_cell_angle_alpha   90.00000000
_cell_angle_beta   90.00000000
_cell_angle_gamma   90.00000000
_symmetry_Int_Tables_number   6
_chemical_formula_structural   Li8Cu16Ge8CO
_chemical_formula_sum   'Li8 Cu16 Ge8 C1 O1'
_cell_volume   1314.37935396
_cell_formula_units_Z   1
loop_
 _symmetry_equiv_pos_site_id
 _symmetry_equiv_pos_as_xyz
  1  'x, y, z'
  2  'x, -y, z'
loop_
 _atom_site_type_symbol
 _atom_site_label
 _atom_site_symmetry_multiplicity
 _atom_site_fract_x
 _atom_site_fract_y
 _atom_site_fract_z
 _atom_site_occupancy
  Li  Li0  2  0.00000000  0.24798000  0.03368000  1.0
  Li  Li1  2  0.00000000  0.25000000  0.88016000  1.0
  Li  Li2  1  0.50000000  0.00000000  0.12998000  1.0
  Li  Li3  1  0.50000000  0.00000000  0.96005000  1.0
  Li  Li4  1  0.50000000  0.50000000  0.13292000  1.0
  Li  Li5  1  0.50000000  0.50000000  0.96005000  1.0
  Cu  Cu6  2  0.22322000  0.25241000  0.11338000  1.0
  Cu  Cu7  2  0.25000000  0.25000000  0.96005000  1.0
  Cu  Cu8  2  0.75000000  0.25000000  0.96005000  1.0
  Cu  Cu9  2  0.77678000  0.25241000  0.11338000  1.0
  Cu  Cu10  1  0.23932000  0.50000000  0.04728000  1.0
  Cu  Cu11  1  0.25000000  0.00000000  0.88016000  1.0
  Cu  Cu12  1  0.25000000  0.50000000  0.88016000  1.0
  Cu  Cu13  1  0.27173000  0.00000000  0.04181000  1.0
  Cu  Cu14  1  0.72826000  0.00000000  0.04181000  1.0
  Cu  Cu15  1  0.75000000  0.00000000  0.88016000  1.0
  Cu  Cu16  1  0.75000000  0.50000000  0.88016000  1.0
  Cu  Cu17  1  0.76068000  0.50000000  0.04728000  1.0
  Ge  Ge18  2  0.50000000  0.25000000  0.88016000  1.0
  Ge  Ge19  2  0.50000000  0.25727000  0.04228000  1.0
  Ge  Ge20  1  -0.00000000  0.50000000  0.13088000  1.0
  Ge  Ge21  1  -0.00000000  0.50000000  0.96005000  1.0
  Ge  Ge22  1  0.00000000  0.00000000  0.96005000  1.0
  Ge  Ge23  1  0.99999000  0.00000000  0.12699000  1.0
  C  C24  1  0.00008000  0.00000000  0.20242000  1.0
  O  O25  1  0.00003000  0.00000000  0.24644000  1.0
