# generated using pymatgen
data_Sc8Ni16Sn8C
_symmetry_space_group_name_H-M   'P 1'
_cell_length_a   6.31539000
_cell_length_b   8.93131000
_cell_length_c   26.69850000
_cell_angle_alpha   90.00000000
_cell_angle_beta   90.00000000
_cell_angle_gamma   90.00000000
_symmetry_Int_Tables_number   1
_chemical_formula_structural   Sc8Ni16Sn8C
_chemical_formula_sum   'Sc8 Ni16 Sn8 C1'
_cell_volume   1505.92103943
_cell_formula_units_Z   1
loop_
 _symmetry_equiv_pos_site_id
 _symmetry_equiv_pos_as_xyz
  1  'x, y, z'
loop_
 _atom_site_type_symbol
 _atom_site_label
 _atom_site_symmetry_multiplicity
 _atom_site_fract_x
 _atom_site_fract_y
 _atom_site_fract_z
 _atom_site_occupancy
  Sc  Sc0  1  0.00000000  0.00000000  0.87455000  1.0
  Sc  Sc1  1  0.50000000  0.25000000  0.95818000  1.0
  Sc  Sc2  1  0.50000000  0.75000000  0.95818000  1.0
  Sc  Sc3  1  0.00000000  0.50000000  0.87455000  1.0
  Sc  Sc4  1  0.99168000  0.50662000  0.04007000  1.0
  Sc  Sc5  1  0.50587000  0.75001000  0.12691000  1.0
  Sc  Sc6  1  0.54127000  0.25002000  0.12885000  1.0
  Sc  Sc7  1  0.99169000  0.99336000  0.04007000  1.0
  Ni  Ni8  1  0.25000000  0.00000000  0.95818000  1.0
  Ni  Ni9  1  0.75000000  0.50000000  0.95818000  1.0
  Ni  Ni10  1  0.75000000  0.00000000  0.95818000  1.0
  Ni  Ni11  1  0.25000000  0.50000000  0.95818000  1.0
  Ni  Ni12  1  0.75000000  0.75000000  0.87455000  1.0
  Ni  Ni13  1  0.25000000  0.25000000  0.87455000  1.0
  Ni  Ni14  1  0.25000000  0.75000000  0.87455000  1.0
  Ni  Ni15  1  0.75000000  0.25000000  0.87455000  1.0
  Ni  Ni16  1  0.18481000  0.46023000  0.12137000  1.0
  Ni  Ni17  1  0.77177000  0.00156000  0.12018000  1.0
  Ni  Ni18  1  0.77182000  0.49851000  0.12019000  1.0
  Ni  Ni19  1  0.18458000  0.04009000  0.12139000  1.0
  Ni  Ni20  1  0.75532000  0.24998000  0.04357000  1.0
  Ni  Ni21  1  0.27359000  0.74996000  0.04327000  1.0
  Ni  Ni22  1  0.22131000  0.25000000  0.04838000  1.0
  Ni  Ni23  1  0.72767000  0.74999000  0.04617000  1.0
  Sn  Sn24  1  0.00000000  0.75000000  0.95818000  1.0
  Sn  Sn25  1  0.50000000  0.00000000  0.87455000  1.0
  Sn  Sn26  1  0.00000000  0.25000000  0.95818000  1.0
  Sn  Sn27  1  0.50000000  0.50000000  0.87455000  1.0
  Sn  Sn28  1  0.94803000  0.25013000  0.17794000  1.0
  Sn  Sn29  1  0.49459000  0.49349000  0.04388000  1.0
  Sn  Sn30  1  0.01358000  0.75007000  0.12851000  1.0
  Sn  Sn31  1  0.49452000  0.00649000  0.04389000  1.0
  C  C32  1  0.20491000  0.25018000  0.12072000  1.0
