# generated using pymatgen
data_ScGaGePd
_symmetry_space_group_name_H-M   'P 1'
_cell_length_a   8.08666000
_cell_length_b   5.81182000
_cell_length_c   24.34090000
_cell_angle_alpha   90.00000000
_cell_angle_beta   90.00000000
_cell_angle_gamma   90.00000000
_symmetry_Int_Tables_number   1
_chemical_formula_structural   ScGaGePd
_chemical_formula_sum   'Sc4 Ga4 Ge4 Pd4'
_cell_volume   1143.97878629
_cell_formula_units_Z   4
loop_
 _symmetry_equiv_pos_site_id
 _symmetry_equiv_pos_as_xyz
  1  'x, y, z'
loop_
 _atom_site_type_symbol
 _atom_site_label
 _atom_site_symmetry_multiplicity
 _atom_site_fract_x
 _atom_site_fract_y
 _atom_site_fract_z
 _atom_site_occupancy
  Sc  Sc0  1  0.00000000  0.72464000  0.97238000  1.0
  Sc  Sc1  1  0.00000000  0.18191000  0.08917000  1.0
  Sc  Sc2  1  0.50000000  0.72464000  0.97240000  1.0
  Sc  Sc3  1  0.50000000  0.18191000  0.08917000  1.0
  Ga  Ga4  1  0.74987000  0.01059000  0.91563000  1.0
  Ga  Ga5  1  0.75001000  0.45461000  0.02972000  1.0
  Ga  Ga6  1  0.25013000  0.01059000  0.91563000  1.0
  Ga  Ga7  1  0.24999000  0.45461000  0.02972000  1.0
  Ge  Ge8  1  0.74989000  0.46550000  0.91740000  1.0
  Ge  Ge9  1  0.75001000  0.95461000  0.02972000  1.0
  Ge  Ge10  1  0.25011000  0.46550000  0.91740000  1.0
  Ge  Ge11  1  0.24999000  0.95461000  0.02972000  1.0
  Pd  Pd12  1  0.00000000  0.22421000  0.96751000  1.0
  Pd  Pd13  1  0.00000000  0.68191000  0.08917000  1.0
  Pd  Pd14  1  0.50000000  0.22421000  0.96760000  1.0
  Pd  Pd15  1  0.50000000  0.68191000  0.08917000  1.0
