# generated using pymatgen
data_Al8Fe16Ni8C
_symmetry_space_group_name_H-M   'P 1'
_cell_length_a   8.18712000
_cell_length_b   5.78917000
_cell_length_c   26.14030000
_cell_angle_alpha   90.00000000
_cell_angle_beta   90.00000000
_cell_angle_gamma   90.00000000
_symmetry_Int_Tables_number   1
_chemical_formula_structural   Al8Fe16Ni8C
_chemical_formula_sum   'Al8 Fe16 Ni8 C1'
_cell_volume   1238.96211387
_cell_formula_units_Z   1
loop_
 _symmetry_equiv_pos_site_id
 _symmetry_equiv_pos_as_xyz
  1  'x, y, z'
loop_
 _atom_site_type_symbol
 _atom_site_label
 _atom_site_symmetry_multiplicity
 _atom_site_fract_x
 _atom_site_fract_y
 _atom_site_fract_z
 _atom_site_occupancy
  Al  Al0  1  0.00000000  0.00000000  0.11745000  1.0
  Al  Al1  1  0.25000000  0.50000000  0.03915000  1.0
  Al  Al2  1  0.75000000  0.50000000  0.03915000  1.0
  Al  Al3  1  0.50000000  0.00000000  0.11745000  1.0
  Al  Al4  1  0.49991000  0.00000000  0.96077000  1.0
  Al  Al5  1  0.76294000  0.50000000  0.86745000  1.0
  Al  Al6  1  0.23708000  0.50000000  0.86745000  1.0
  Al  Al7  1  0.00009000  0.00000000  0.96466000  1.0
  Fe  Fe8  1  0.00000000  0.75000000  0.03915000  1.0
  Fe  Fe9  1  0.50000000  0.25000000  0.03915000  1.0
  Fe  Fe10  1  0.00000000  0.25000000  0.03915000  1.0
  Fe  Fe11  1  0.50000000  0.75000000  0.03915000  1.0
  Fe  Fe12  1  0.75000000  0.25000000  0.11745000  1.0
  Fe  Fe13  1  0.25000000  0.75000000  0.11745000  1.0
  Fe  Fe14  1  0.75000000  0.75000000  0.11745000  1.0
  Fe  Fe15  1  0.25000000  0.25000000  0.11745000  1.0
  Fe  Fe16  1  0.50002000  0.71610000  0.88603000  1.0
  Fe  Fe17  1  0.00001000  0.21396000  0.88271000  1.0
  Fe  Fe18  1  0.50002000  0.28390000  0.88603000  1.0
  Fe  Fe19  1  0.00001000  0.78604000  0.88271000  1.0
  Fe  Fe20  1  0.25047000  0.26609000  0.95611000  1.0
  Fe  Fe21  1  0.74951000  0.73426000  0.95612000  1.0
  Fe  Fe22  1  0.25047000  0.73391000  0.95611000  1.0
  Fe  Fe23  1  0.74951000  0.26574000  0.95612000  1.0
  Ni  Ni24  1  0.75000000  0.00000000  0.03915000  1.0
  Ni  Ni25  1  0.00000000  0.50000000  0.11745000  1.0
  Ni  Ni26  1  0.25000000  0.00000000  0.03915000  1.0
  Ni  Ni27  1  0.50000000  0.50000000  0.11745000  1.0
  Ni  Ni28  1  0.26653000  0.00000000  0.88672000  1.0
  Ni  Ni29  1  0.50007000  0.50000000  0.97030000  1.0
  Ni  Ni30  1  0.73349000  0.00000000  0.88669000  1.0
  Ni  Ni31  1  0.99981000  0.50000000  0.95995000  1.0
  C  C32  1  0.00001000  0.50000000  0.84874000  1.0
