data_image0
_chemical_formula_structural       Sc4Pd12C
_chemical_formula_sum              "Sc4 Pd12 C1"
_cell_length_a       8.08515
_cell_length_b       5.71706
_cell_length_c       24.2878
_cell_angle_alpha    90
_cell_angle_beta     90
_cell_angle_gamma    90

_space_group_name_H-M_alt    "P 1"
_space_group_IT_number       1

loop_
  _space_group_symop_operation_xyz
  'x, y, z'

loop_
  _atom_site_type_symbol
  _atom_site_label
  _atom_site_symmetry_multiplicity
  _atom_site_fract_x
  _atom_site_fract_y
  _atom_site_fract_z
  _atom_site_occupancy
  Sc  Sc1       1.0  0.00911  0.99451  0.08026  1.0000
  Sc  Sc2       1.0  0.00000  0.50000  0.97058  1.0000
  Sc  Sc3       1.0  0.49089  0.99451  0.08026  1.0000
  Sc  Sc4       1.0  0.50000  0.50000  0.97058  1.0000
  Pd  Pd1       1.0  0.02982  0.47986  0.09010  1.0000
  Pd  Pd2       1.0  0.25000  0.75244  0.02762  1.0000
  Pd  Pd3       1.0  0.25000  0.24012  0.02262  1.0000
  Pd  Pd4       1.0  0.00000  0.00000  0.97058  1.0000
  Pd  Pd5       1.0  0.25000  0.25000  0.91173  1.0000
  Pd  Pd6       1.0  0.25000  0.75000  0.91173  1.0000
  Pd  Pd7       1.0  0.47018  0.47986  0.09010  1.0000
  Pd  Pd8       1.0  0.75000  0.74382  0.03645  1.0000
  Pd  Pd9       1.0  0.75000  0.24642  0.03622  1.0000
  Pd  Pd10      1.0  0.50000  0.00000  0.97058  1.0000
  Pd  Pd11      1.0  0.75000  0.25000  0.91173  1.0000
  Pd  Pd12      1.0  0.75000  0.75000  0.91173  1.0000
  C   C1        1.0  0.25000  0.29923  0.10392  1.0000
