# generated using pymatgen
data_Sc4Pd12C
_symmetry_space_group_name_H-M   Pm
_cell_length_a   5.71706000
_cell_length_b   8.08515000
_cell_length_c   24.28780000
_cell_angle_alpha   90.00000000
_cell_angle_beta   90.00000000
_cell_angle_gamma   90.00000000
_symmetry_Int_Tables_number   6
_chemical_formula_structural   Sc4Pd12C
_chemical_formula_sum   'Sc4 Pd12 C1'
_cell_volume   1122.66196600
_cell_formula_units_Z   1
loop_
 _symmetry_equiv_pos_site_id
 _symmetry_equiv_pos_as_xyz
  1  'x, y, z'
  2  'x, -y, z'
loop_
 _atom_site_type_symbol
 _atom_site_label
 _atom_site_symmetry_multiplicity
 _atom_site_fract_x
 _atom_site_fract_y
 _atom_site_fract_z
 _atom_site_occupancy
  Sc  Sc0  2  0.00549000  0.25911000  0.91974000  1.0
  Sc  Sc1  2  0.50000000  0.25000000  0.02942000  1.0
  Pd  Pd2  2  0.00000000  0.25000000  0.02942000  1.0
  Pd  Pd3  2  0.52014000  0.27982000  0.90990000  1.0
  Pd  Pd4  1  0.24756000  0.50000000  0.97238000  1.0
  Pd  Pd5  1  0.25000000  0.00000000  0.08827000  1.0
  Pd  Pd6  1  0.25000000  0.50000000  0.08827000  1.0
  Pd  Pd7  1  0.25618000  0.00000000  0.96355000  1.0
  Pd  Pd8  1  0.75000000  0.00000000  0.08827000  1.0
  Pd  Pd9  1  0.75000000  0.50000000  0.08827000  1.0
  Pd  Pd10  1  0.75358000  0.00000000  0.96378000  1.0
  Pd  Pd11  1  0.75988000  0.50000000  0.97738000  1.0
  C  C12  1  0.70077000  0.50000000  0.89608000  1.0
