# generated using pymatgen
data_Sc4Al4In4Pd4C
_symmetry_space_group_name_H-M   Pm
_cell_length_a   5.88291000
_cell_length_b   8.60736000
_cell_length_c   24.41210000
_cell_angle_alpha   90.00000000
_cell_angle_beta   90.00000000
_cell_angle_gamma   90.00000000
_symmetry_Int_Tables_number   6
_chemical_formula_structural   Sc4Al4In4Pd4C
_chemical_formula_sum   'Sc4 Al4 In4 Pd4 C1'
_cell_volume   1236.13901043
_cell_formula_units_Z   1
loop_
 _symmetry_equiv_pos_site_id
 _symmetry_equiv_pos_as_xyz
  1  'x, y, z'
  2  'x, -y, z'
loop_
 _atom_site_type_symbol
 _atom_site_label
 _atom_site_symmetry_multiplicity
 _atom_site_fract_x
 _atom_site_fract_y
 _atom_site_fract_z
 _atom_site_occupancy
  Sc  Sc0  1  0.22249000  0.50000000  0.03589000  1.0
  Sc  Sc1  1  0.26922000  0.00000000  0.02606000  1.0
  Sc  Sc2  1  0.74688000  0.00000000  0.90963000  1.0
  Sc  Sc3  1  0.74688000  0.50000000  0.90963000  1.0
  Al  Al4  2  0.02522000  0.22125000  0.09748000  1.0
  Al  Al5  2  0.49792000  0.25000000  0.96988000  1.0
  In  In6  2  0.54820000  0.26770000  0.09382000  1.0
  In  In7  2  0.99792000  0.25000000  0.96988000  1.0
  Pd  Pd8  1  0.24688000  0.00000000  0.90963000  1.0
  Pd  Pd9  1  0.24688000  0.50000000  0.90963000  1.0
  Pd  Pd10  1  0.71336000  0.50000000  0.01617000  1.0
  Pd  Pd11  1  0.74201000  0.00000000  0.02660000  1.0
  C  C12  1  0.03431000  0.00000000  0.09273000  1.0
