# generated using pymatgen
data_Sn8Pt24CO
_symmetry_space_group_name_H-M   Pm
_cell_length_a   8.18271000
_cell_length_b   8.18271000
_cell_length_c   26.13700000
_cell_angle_alpha   90.00000000
_cell_angle_beta   90.00000000
_cell_angle_gamma   90.00000000
_symmetry_Int_Tables_number   6
_chemical_formula_structural   Sn8Pt24CO
_chemical_formula_sum   'Sn8 Pt24 C1 O1'
_cell_volume   1750.04839033
_cell_formula_units_Z   1
loop_
 _symmetry_equiv_pos_site_id
 _symmetry_equiv_pos_as_xyz
  1  'x, y, z'
  2  'x, -y, z'
loop_
 _atom_site_type_symbol
 _atom_site_label
 _atom_site_symmetry_multiplicity
 _atom_site_fract_x
 _atom_site_fract_y
 _atom_site_fract_z
 _atom_site_occupancy
  Sn  Sn0  1  0.00000000  0.00000000  0.12228000  1.0
  Sn  Sn1  1  0.00000000  0.00000000  0.96087000  1.0
  Sn  Sn2  1  0.00000000  0.50000000  0.12215000  1.0
  Sn  Sn3  1  0.00000000  0.50000000  0.96087000  1.0
  Sn  Sn4  1  0.50000000  0.00000000  0.12174000  1.0
  Sn  Sn5  1  0.50000000  0.00000000  0.96087000  1.0
  Sn  Sn6  1  0.50000000  0.50000000  0.12229000  1.0
  Sn  Sn7  1  0.50000000  0.50000000  0.96087000  1.0
  Pt  Pt8  2  0.00000000  0.25002000  0.88260000  1.0
  Pt  Pt9  2  0.00001000  0.24991000  0.03884000  1.0
  Pt  Pt10  2  0.24928000  0.25074000  0.11394000  1.0
  Pt  Pt11  2  0.25000000  0.25002000  0.96087000  1.0
  Pt  Pt12  2  0.49999000  0.25009000  0.03914000  1.0
  Pt  Pt13  2  0.50000000  0.25002000  0.88260000  1.0
  Pt  Pt14  2  0.75000000  0.25002000  0.96087000  1.0
  Pt  Pt15  2  0.75072000  0.25075000  0.11395000  1.0
  Pt  Pt16  1  0.24992000  0.00000000  0.03914000  1.0
  Pt  Pt17  1  0.25000000  0.00000000  0.88260000  1.0
  Pt  Pt18  1  0.25000000  0.50000000  0.88260000  1.0
  Pt  Pt19  1  0.25012000  0.50000000  0.03884000  1.0
  Pt  Pt20  1  0.74988000  0.50000000  0.03884000  1.0
  Pt  Pt21  1  0.75000000  0.00000000  0.88260000  1.0
  Pt  Pt22  1  0.75000000  0.50000000  0.88260000  1.0
  Pt  Pt23  1  0.75007000  0.00000000  0.03914000  1.0
  C  C24  1  0.00013000  0.50000000  0.26007000  1.0
  O  O25  1  0.99999000  0.50000000  0.30355000  1.0
