data_image0
_chemical_formula_structural       YInCuSnYInCuSnYInCuSnYInCuSnC
_chemical_formula_sum              "Y4 In4 Cu4 Sn4 C1"
_cell_length_a       6.35598
_cell_length_b       8.8474
_cell_length_c       24.764
_cell_angle_alpha    90
_cell_angle_beta     90
_cell_angle_gamma    90

_space_group_name_H-M_alt    "P 1"
_space_group_IT_number       1

loop_
  _space_group_symop_operation_xyz
  'x, y, z'

loop_
  _atom_site_type_symbol
  _atom_site_label
  _atom_site_symmetry_multiplicity
  _atom_site_fract_x
  _atom_site_fract_y
  _atom_site_fract_z
  _atom_site_occupancy
  Y   Y1        1.0  0.50000  0.00000  0.90381  1.0000
  In  In1       1.0  0.24117  0.25000  0.96794  1.0000
  Cu  Cu1       1.0  0.00000  0.00000  0.90381  1.0000
  Sn  Sn1       1.0  0.74117  0.25000  0.96794  1.0000
  Y   Y2        1.0  0.98234  0.00000  0.03206  1.0000
  In  In2       1.0  0.72350  0.25000  0.09619  1.0000
  Cu  Cu2       1.0  0.48234  0.00000  0.03206  1.0000
  Sn  Sn2       1.0  0.22350  0.25000  0.09619  1.0000
  Y   Y3        1.0  0.50000  0.50000  0.90381  1.0000
  In  In3       1.0  0.24117  0.75000  0.96794  1.0000
  Cu  Cu3       1.0  0.00000  0.50000  0.90381  1.0000
  Sn  Sn3       1.0  0.74117  0.75000  0.96794  1.0000
  Y   Y4        1.0  0.98234  0.50000  0.03206  1.0000
  In  In4       1.0  0.72350  0.75000  0.09619  1.0000
  Cu  Cu4       1.0  0.48234  0.50000  0.03206  1.0000
  Sn  Sn4       1.0  0.22350  0.75000  0.09619  1.0000
  C   C1        1.0  0.48234  0.00000  0.12849  1.0000
