# generated using pymatgen
data_Y4In4Cu4Sn4C
_symmetry_space_group_name_H-M   P1
_cell_length_a   6.35598000
_cell_length_b   8.84740000
_cell_length_c   24.76400000
_cell_angle_alpha   90.00000000
_cell_angle_beta   90.00000000
_cell_angle_gamma   90.00000000
_symmetry_Int_Tables_number   1
_chemical_formula_structural   Y4In4Cu4Sn4C
_chemical_formula_sum   'Y4 In4 Cu4 Sn4 C1'
_cell_volume   1392.57623650
_cell_formula_units_Z   1
loop_
 _symmetry_equiv_pos_site_id
 _symmetry_equiv_pos_as_xyz
  1  'x, y, z'
loop_
 _atom_site_type_symbol
 _atom_site_label
 _atom_site_symmetry_multiplicity
 _atom_site_fract_x
 _atom_site_fract_y
 _atom_site_fract_z
 _atom_site_occupancy
  Y  Y0  1  0.50000000  0.00000000  0.90381000  1.0
  Y  Y1  1  0.50000000  0.50000000  0.90381000  1.0
  Y  Y2  1  0.96025000  0.00005000  0.03025000  1.0
  Y  Y3  1  0.98859000  0.50022000  0.03352000  1.0
  In  In4  1  0.24117000  0.25000000  0.96794000  1.0
  In  In5  1  0.24117000  0.75000000  0.96794000  1.0
  In  In6  1  0.66022000  0.73959000  0.09217000  1.0
  In  In7  1  0.66032000  0.25954000  0.09221000  1.0
  Cu  Cu8  1  0.00000000  0.00000000  0.90381000  1.0
  Cu  Cu9  1  0.00000000  0.50000000  0.90381000  1.0
  Cu  Cu10  1  0.45394000  0.99983000  0.03504000  1.0
  Cu  Cu11  1  0.49279000  0.49960000  0.01988000  1.0
  Sn  Sn12  1  0.18750000  0.23355000  0.11685000  1.0
  Sn  Sn13  1  0.18839000  0.76891000  0.11713000  1.0
  Sn  Sn14  1  0.74117000  0.25000000  0.96794000  1.0
  Sn  Sn15  1  0.74117000  0.75000000  0.96794000  1.0
  C  C16  1  0.23193000  0.00125000  0.09356000  1.0
