# generated using pymatgen
data_Li4Sc4In4Ag4CO
_symmetry_space_group_name_H-M   'P 1'
_cell_length_a   6.68683000
_cell_length_b   6.68683000
_cell_length_c   25.01510000
_cell_angle_alpha   90.00000000
_cell_angle_beta   90.00000000
_cell_angle_gamma   90.00000000
_symmetry_Int_Tables_number   1
_chemical_formula_structural   Li4Sc4In4Ag4CO
_chemical_formula_sum   'Li4 Sc4 In4 Ag4 C1 O1'
_cell_volume   1118.51756302
_cell_formula_units_Z   1
loop_
 _symmetry_equiv_pos_site_id
 _symmetry_equiv_pos_as_xyz
  1  'x, y, z'
loop_
 _atom_site_type_symbol
 _atom_site_label
 _atom_site_symmetry_multiplicity
 _atom_site_fract_x
 _atom_site_fract_y
 _atom_site_fract_z
 _atom_site_occupancy
  Li  Li0  1  0.50000000  0.00000000  0.10024000  1
  Li  Li1  1  0.99816500  0.00183500  0.96152000  1
  Li  Li2  1  0.50133000  0.49867000  0.96163000  1
  Li  Li3  1  0.00000000  0.50000000  0.10024000  1
  Sc  Sc4  1  0.25000000  0.25000000  0.03341000  1
  Sc  Sc5  1  0.75044500  0.24955500  0.89118000  1
  Sc  Sc6  1  0.25004500  0.74995500  0.89098000  1
  Sc  Sc7  1  0.75000000  0.75000000  0.03341000  1
  In  In8  1  0.25000000  0.75000000  0.03341000  1
  In  In9  1  0.75023000  0.75024000  0.89050000  1
  In  In10  1  0.24976000  0.24977000  0.89050000  1
  In  In11  1  0.75000000  0.25000000  0.03341000  1
  Ag  Ag12  1  0.00000000  0.00000000  0.10024000  1
  Ag  Ag13  1  0.50191000  0.00194000  0.96327000  1
  Ag  Ag14  1  0.99806000  0.49809000  0.96327000  1
  Ag  Ag15  1  0.50000000  0.50000000  0.10024000  1
  C  C16  1  0.25205000  0.74795000  0.79922000  1
  O  O17  1  0.25166000  0.74834000  0.75331000  1
