# generated using pymatgen
data_Hf8Ni16Sn8C
_symmetry_space_group_name_H-M   Pmm2
_cell_length_a   6.29417000
_cell_length_b   8.90130000
_cell_length_c   26.67600000
_cell_angle_alpha   90.00000000
_cell_angle_beta   90.00000000
_cell_angle_gamma   90.00000000
_symmetry_Int_Tables_number   25
_chemical_formula_structural   Hf8Ni16Sn8C
_chemical_formula_sum   'Hf8 Ni16 Sn8 C1'
_cell_volume   1494.55745665
_cell_formula_units_Z   1
loop_
 _symmetry_equiv_pos_site_id
 _symmetry_equiv_pos_as_xyz
  1  'x, y, z'
  2  '-x, -y, z'
  3  '-x, y, z'
  4  'x, -y, z'
loop_
 _atom_site_type_symbol
 _atom_site_label
 _atom_site_symmetry_multiplicity
 _atom_site_fract_x
 _atom_site_fract_y
 _atom_site_fract_z
 _atom_site_occupancy
  Hf  Hf0  2  0.50000000  0.24043000  0.12668000  1.0
  Hf  Hf1  2  0.50000000  0.25000000  0.95829000  1.0
  Hf  Hf2  1  0.00000000  0.00000000  0.04222000  1.0
  Hf  Hf3  1  0.00000000  0.00000000  0.87487000  1.0
  Hf  Hf4  1  0.00000000  0.50000000  0.04188000  1.0
  Hf  Hf5  1  0.00000000  0.50000000  0.87487000  1.0
  Ni  Ni6  4  0.25000000  0.25000000  0.87487000  1.0
  Ni  Ni7  4  0.25656000  0.25044000  0.04375000  1.0
  Ni  Ni8  2  0.20791000  0.00000000  0.12492000  1.0
  Ni  Ni9  2  0.25000000  0.00000000  0.95829000  1.0
  Ni  Ni10  2  0.25000000  0.50000000  0.95829000  1.0
  Ni  Ni11  2  0.25617000  0.50000000  0.11986000  1.0
  Sn  Sn12  2  0.00000000  0.25000000  0.95829000  1.0
  Sn  Sn13  2  0.00000000  0.25833000  0.13131000  1.0
  Sn  Sn14  1  0.50000000  0.00000000  0.04184000  1.0
  Sn  Sn15  1  0.50000000  0.00000000  0.87487000  1.0
  Sn  Sn16  1  0.50000000  0.50000000  0.04064000  1.0
  Sn  Sn17  1  0.50000000  0.50000000  0.87487000  1.0
  C  C18  1  0.50000000  0.00000000  0.14375000  1.0
