data_image0
_chemical_formula_structural       Li8In8Ga8Pd8CO
_chemical_formula_sum              "Li8 In8 Ga8 Pd8 C1 O1"
_cell_length_a       6.4668
_cell_length_b       9.14544
_cell_length_c       26.8591
_cell_angle_alpha    90
_cell_angle_beta     90
_cell_angle_gamma    90

_space_group_name_H-M_alt    "P 1"
_space_group_IT_number       1

loop_
  _space_group_symop_operation_xyz
  'x, y, z'

loop_
  _atom_site_type_symbol
  _atom_site_label
  _atom_site_symmetry_multiplicity
  _atom_site_fract_x
  _atom_site_fract_y
  _atom_site_fract_z
  _atom_site_occupancy
  Li  Li1       1.0  0.75000  0.00000  0.95744  1.0000
  Li  Li2       1.0  0.75000  0.50000  0.95744  1.0000
  Li  Li3       1.0  0.25000  0.25000  0.87231  1.0000
  Li  Li4       1.0  0.25000  0.75000  0.87231  1.0000
  Li  Li5       1.0  0.72954  0.50180  0.13596  1.0000
  Li  Li6       1.0  0.72953  0.99820  0.13597  1.0000
  Li  Li7       1.0  0.21758  0.75000  0.04927  1.0000
  Li  Li8       1.0  0.21836  0.25000  0.04474  1.0000
  In  In1       1.0  0.00000  0.25000  0.95744  1.0000
  In  In2       1.0  0.00000  0.75000  0.95744  1.0000
  In  In3       1.0  0.50000  0.50000  0.87231  1.0000
  In  In4       1.0  0.50000  0.00000  0.87231  1.0000
  In  In5       1.0  0.99501  0.75000  0.14909  1.0000
  In  In6       1.0  0.00489  0.25000  0.14669  1.0000
  In  In7       1.0  0.50435  0.99328  0.04274  1.0000
  In  In8       1.0  0.50435  0.50672  0.04274  1.0000
  Ga  Ga1       1.0  0.00000  0.00000  0.87231  1.0000
  Ga  Ga2       1.0  0.00000  0.50000  0.87231  1.0000
  Ga  Ga3       1.0  0.50000  0.75000  0.95744  1.0000
  Ga  Ga4       1.0  0.50000  0.25000  0.95744  1.0000
  Ga  Ga5       1.0  0.98460  0.50067  0.04607  1.0000
  Ga  Ga6       1.0  0.98461  0.99933  0.04607  1.0000
  Ga  Ga7       1.0  0.46774  0.25001  0.12306  1.0000
  Ga  Ga8       1.0  0.48217  0.75001  0.13417  1.0000
  Pd  Pd1       1.0  0.25000  0.00000  0.95744  1.0000
  Pd  Pd2       1.0  0.25000  0.50000  0.95744  1.0000
  Pd  Pd3       1.0  0.75000  0.25000  0.87231  1.0000
  Pd  Pd4       1.0  0.75000  0.75000  0.87231  1.0000
  Pd  Pd5       1.0  0.23832  0.50230  0.12159  1.0000
  Pd  Pd6       1.0  0.23832  0.99770  0.12160  1.0000
  Pd  Pd7       1.0  0.76660  0.75001  0.04267  1.0000
  Pd  Pd8       1.0  0.75437  0.25000  0.04847  1.0000
  C   C1        1.0  0.61550  0.25000  0.19255  1.0000
  O   O1        1.0  0.59346  0.25000  0.23574  1.0000
