# generated using pymatgen
data_Li8In8Ga8Pd8CO
_symmetry_space_group_name_H-M   'P 1'
_cell_length_a   9.14544000
_cell_length_b   6.46680000
_cell_length_c   26.85910000
_cell_angle_alpha   90.00000000
_cell_angle_beta   90.00000000
_cell_angle_gamma   90.00000000
_symmetry_Int_Tables_number   1
_chemical_formula_structural   Li8In8Ga8Pd8CO
_chemical_formula_sum   'Li8 In8 Ga8 Pd8 C1 O1'
_cell_volume   1588.49367763
_cell_formula_units_Z   1
loop_
 _symmetry_equiv_pos_site_id
 _symmetry_equiv_pos_as_xyz
  1  'x, y, z'
loop_
 _atom_site_type_symbol
 _atom_site_label
 _atom_site_symmetry_multiplicity
 _atom_site_fract_x
 _atom_site_fract_y
 _atom_site_fract_z
 _atom_site_occupancy
  Li  Li0  1  0.75000000  0.75000000  0.04256000  1.0
  Li  Li1  1  0.25000000  0.75000000  0.04256000  1.0
  Li  Li2  1  0.00000000  0.25000000  0.12769000  1.0
  Li  Li3  1  0.50000000  0.25000000  0.12769000  1.0
  Li  Li4  1  0.25180000  0.72954000  0.86404000  1.0
  Li  Li5  1  0.74820000  0.72954000  0.86404000  1.0
  Li  Li6  1  0.50000000  0.21758000  0.95073000  1.0
  Li  Li7  1  0.00000000  0.21836000  0.95526000  1.0
  In  In8  1  0.00000000  0.00000000  0.04256000  1.0
  In  In9  1  0.50000000  1.00000000  0.04256000  1.0
  In  In10  1  0.25000000  0.50000000  0.12769000  1.0
  In  In11  1  0.75000000  0.50000000  0.12769000  1.0
  In  In12  1  0.50000000  0.99501000  0.85091000  1.0
  In  In13  1  0.00000000  0.00489000  0.85331000  1.0
  In  In14  1  0.74328000  0.50435000  0.95726000  1.0
  In  In15  1  0.25672000  0.50435000  0.95726000  1.0
  Ga  Ga16  1  0.75000000  0.00000000  0.12769000  1.0
  Ga  Ga17  1  0.25000000  0.00000000  0.12769000  1.0
  Ga  Ga18  1  0.50000000  0.50000000  0.04256000  1.0
  Ga  Ga19  1  0.00000000  0.50000000  0.04256000  1.0
  Ga  Ga20  1  0.25067000  0.98460000  0.95393000  1.0
  Ga  Ga21  1  0.74933000  0.98460000  0.95393000  1.0
  Ga  Ga22  1  0.00000000  0.46774000  0.87694000  1.0
  Ga  Ga23  1  0.50000000  0.48217000  0.86583000  1.0
  Pd  Pd24  1  0.75000000  0.25000000  0.04256000  1.0
  Pd  Pd25  1  0.25000000  0.25000000  0.04256000  1.0
  Pd  Pd26  1  0.00000000  0.75000000  0.12769000  1.0
  Pd  Pd27  1  0.50000000  0.75000000  0.12769000  1.0
  Pd  Pd28  1  0.25230000  0.23832000  0.87841000  1.0
  Pd  Pd29  1  0.74770000  0.23832000  0.87841000  1.0
  Pd  Pd30  1  0.50000000  0.76660000  0.95733000  1.0
  Pd  Pd31  1  0.00000000  0.75437000  0.95153000  1.0
  C  C32  1  0.00000000  0.61550000  0.80745000  1.0
  O  O33  1  0.00000000  0.59346000  0.76426000  1.0
