# generated using pymatgen
data_Sc4In4Ga4Pd4C
_symmetry_space_group_name_H-M   'P 1'
_cell_length_a   6.68246000
_cell_length_b   6.68246000
_cell_length_c   25.01180000
_cell_angle_alpha   90.00000000
_cell_angle_beta   90.00000000
_cell_angle_gamma   90.00000000
_symmetry_Int_Tables_number   1
_chemical_formula_structural   Sc4In4Ga4Pd4C
_chemical_formula_sum   'Sc4 In4 Ga4 Pd4 C1'
_cell_volume   1116.90872350
_cell_formula_units_Z   1
loop_
 _symmetry_equiv_pos_site_id
 _symmetry_equiv_pos_as_xyz
  1  'x, y, z'
loop_
 _atom_site_type_symbol
 _atom_site_label
 _atom_site_symmetry_multiplicity
 _atom_site_fract_x
 _atom_site_fract_y
 _atom_site_fract_z
 _atom_site_occupancy
  Sc  Sc0  1  0.24960000  0.24969000  0.96090000  1
  Sc  Sc1  1  0.75001000  0.24999000  0.10019000  1
  Sc  Sc2  1  0.25001000  0.74999000  0.10019000  1
  Sc  Sc3  1  0.75031000  0.75040000  0.96090000  1
  In  In4  1  0.25017500  0.74982500  0.97383000  1
  In  In5  1  0.75000000  0.74998000  0.10019000  1
  In  In6  1  0.25002000  0.25000000  0.10019000  1
  In  In7  1  0.75004000  0.24996000  0.94707000  1
  Ga  Ga8  1  0.03445500  0.96554500  0.88089000  1
  Ga  Ga9  1  0.50000000  0.99998000  0.03340000  1
  Ga  Ga10  1  0.00002000  0.50000000  0.03340000  1
  Ga  Ga11  1  0.46725500  0.53274500  0.88121000  1
  Pd  Pd12  1  0.47022000  0.97046000  0.90214000  1
  Pd  Pd13  1  0.00001000  0.99999000  0.03340000  1
  Pd  Pd14  1  0.50001000  0.49999000  0.03340000  1
  Pd  Pd15  1  0.02954000  0.52978000  0.90214000  1
  C  C16  1  0.25116000  0.74884000  0.87209000  1
