# generated using pymatgen
data_Sc4In4Ga4Pd4C
_symmetry_space_group_name_H-M   Cm
_cell_length_a   9.45042556
_cell_length_b   9.45042556
_cell_length_c   25.01180000
_cell_angle_alpha   90.00000000
_cell_angle_beta   90.00000000
_cell_angle_gamma   90.00000000
_symmetry_Int_Tables_number   8
_chemical_formula_structural   Sc4In4Ga4Pd4C
_chemical_formula_sum   'Sc8 In8 Ga8 Pd8 C2'
_cell_volume   2233.81744699
_cell_formula_units_Z   2
loop_
 _symmetry_equiv_pos_site_id
 _symmetry_equiv_pos_as_xyz
  1  'x, y, z'
  2  'x, -y, z'
  3  'x+1/2, y+1/2, z'
  4  'x+1/2, -y+1/2, z'
loop_
 _atom_site_type_symbol
 _atom_site_label
 _atom_site_symmetry_multiplicity
 _atom_site_fract_x
 _atom_site_fract_y
 _atom_site_fract_z
 _atom_site_occupancy
  Sc  Sc0  4  0.49995500  0.25035500  0.03910000  1.0
  Sc  Sc1  2  0.25001000  0.00000000  0.89981000  1.0
  Sc  Sc2  2  0.25001000  0.50000000  0.89981000  1.0
  In  In3  4  0.00001000  0.25001000  0.89981000  1.0
  In  In4  2  0.25004000  0.50000000  0.05293000  1.0
  In  In5  2  0.25017500  0.00000000  0.02617000  1.0
  Ga  Ga6  4  0.25001000  0.24999000  0.96660000  1.0
  Ga  Ga7  2  0.03445500  0.00000000  0.11911000  1.0
  Ga  Ga8  2  0.46725500  0.00000000  0.11879000  1.0
  Pd  Pd9  4  0.24988000  0.22034000  0.09786000  1.0
  Pd  Pd10  2  0.00001000  0.00000000  0.96660000  1.0
  Pd  Pd11  2  0.00001000  0.50000000  0.96660000  1.0
  C  C12  2  0.25116000  0.00000000  0.12791000  1.0
