# generated using pymatgen
data_Al8Co8C
_symmetry_space_group_name_H-M   P4mm
_cell_length_a   5.70199000
_cell_length_b   5.70199000
_cell_length_c   24.27650000
_cell_angle_alpha   90.00000000
_cell_angle_beta   90.00000000
_cell_angle_gamma   90.00000000
_symmetry_Int_Tables_number   99
_chemical_formula_structural   Al8Co8C
_chemical_formula_sum   'Al8 Co8 C1'
_cell_volume   789.29431782
_cell_formula_units_Z   1
loop_
 _symmetry_equiv_pos_site_id
 _symmetry_equiv_pos_as_xyz
  1  'x, y, z'
  2  '-y, x, z'
  3  '-x, -y, z'
  4  'y, -x, z'
  5  '-x, y, z'
  6  'y, x, z'
  7  'x, -y, z'
  8  '-y, -x, z'
loop_
 _atom_site_type_symbol
 _atom_site_label
 _atom_site_symmetry_multiplicity
 _atom_site_fract_x
 _atom_site_fract_y
 _atom_site_fract_z
 _atom_site_occupancy
  Al  Al0  4  0.25000000  0.25000000  0.07716000  1.0
  Al  Al1  4  0.25000000  0.25000000  0.95972000  1.0
  Co  Co2  2  0.00000000  0.50000000  0.01844000  1.0
  Co  Co3  2  0.00000000  0.50000000  0.90100000  1.0
  Co  Co4  1  0.00000000  0.00000000  0.01844000  1.0
  Co  Co5  1  0.00000000  0.00000000  0.90100000  1.0
  Co  Co6  1  0.50000000  0.50000000  0.01844000  1.0
  Co  Co7  1  0.50000000  0.50000000  0.90100000  1.0
  C  C8  1  0.00000000  0.00000000  0.11011000  1.0
