# generated using pymatgen
data_Mg8Sc8Ga8Pd8CO
_symmetry_space_group_name_H-M   'P 1'
_cell_length_a   9.28388000
_cell_length_b   6.56469000
_cell_length_c   26.96290000
_cell_angle_alpha   90.00000000
_cell_angle_beta   90.00000000
_cell_angle_gamma   90.00000000
_symmetry_Int_Tables_number   1
_chemical_formula_structural   Mg8Sc8Ga8Pd8CO
_chemical_formula_sum   'Mg8 Sc8 Ga8 Pd8 C1 O1'
_cell_volume   1643.27535436
_cell_formula_units_Z   1
loop_
 _symmetry_equiv_pos_site_id
 _symmetry_equiv_pos_as_xyz
  1  'x, y, z'
loop_
 _atom_site_type_symbol
 _atom_site_label
 _atom_site_symmetry_multiplicity
 _atom_site_fract_x
 _atom_site_fract_y
 _atom_site_fract_z
 _atom_site_occupancy
  Mg  Mg0  1  0.00000000  0.25000000  0.04304000  1.0
  Mg  Mg1  1  0.50000000  0.25000000  0.04304000  1.0
  Mg  Mg2  1  0.25000000  0.75000000  0.12912000  1.0
  Mg  Mg3  1  0.75000000  0.75000000  0.12912000  1.0
  Mg  Mg4  1  0.50000000  0.25280000  0.86702000  1.0
  Mg  Mg5  1  0.00000000  0.25030000  0.86561000  1.0
  Mg  Mg6  1  0.75324000  0.74428000  0.95572000  1.0
  Mg  Mg7  1  0.24676000  0.74428000  0.95572000  1.0
  Sc  Sc8  1  0.00000000  0.75000000  0.04304000  1.0
  Sc  Sc9  1  0.50000000  0.75000000  0.04304000  1.0
  Sc  Sc10  1  0.25000000  0.25000000  0.12912000  1.0
  Sc  Sc11  1  0.75000000  0.25000000  0.12912000  1.0
  Sc  Sc12  1  0.50000000  0.74638000  0.86629000  1.0
  Sc  Sc13  1  0.00000000  0.74858000  0.86785000  1.0
  Sc  Sc14  1  0.74669000  0.25144000  0.95577000  1.0
  Sc  Sc15  1  0.25331000  0.25144000  0.95577000  1.0
  Ga  Ga16  1  0.00000000  0.00000000  0.12912000  1.0
  Ga  Ga17  1  0.50000000  0.00000000  0.12912000  1.0
  Ga  Ga18  1  0.75000000  0.50000000  0.04304000  1.0
  Ga  Ga19  1  0.25000000  0.50000000  0.04304000  1.0
  Ga  Ga20  1  0.50000000  0.98740000  0.95326000  1.0
  Ga  Ga21  1  0.00000000  0.00300000  0.95428000  1.0
  Ga  Ga22  1  0.24852000  0.49828000  0.86259000  1.0
  Ga  Ga23  1  0.75148000  0.49828000  0.86259000  1.0
  Pd  Pd24  1  0.25000000  0.00000000  0.04304000  1.0
  Pd  Pd25  1  0.75000000  0.00000000  0.04304000  1.0
  Pd  Pd26  1  0.50000000  0.50000000  0.12912000  1.0
  Pd  Pd27  1  0.00000000  0.50000000  0.12912000  1.0
  Pd  Pd28  1  0.74663000  0.00572000  0.87713000  1.0
  Pd  Pd29  1  0.25337000  0.00572000  0.87713000  1.0
  Pd  Pd30  1  0.00000000  0.49530000  0.95580000  1.0
  Pd  Pd31  1  0.50000000  0.51483000  0.95475000  1.0
  C  C32  1  0.00000000  0.74147000  0.78285000  1.0
  O  O33  1  0.00000000  0.73725000  0.74023000  1.0
