# generated using pymatgen
data_Mg8Sc8Ga8Pd8CO
_symmetry_space_group_name_H-M   Pm
_cell_length_a   6.56469000
_cell_length_b   9.28388000
_cell_length_c   26.96290000
_cell_angle_alpha   90.00000000
_cell_angle_beta   90.00000000
_cell_angle_gamma   90.00000000
_symmetry_Int_Tables_number   6
_chemical_formula_structural   Mg8Sc8Ga8Pd8CO
_chemical_formula_sum   'Mg8 Sc8 Ga8 Pd8 C1 O1'
_cell_volume   1643.27535436
_cell_formula_units_Z   1
loop_
 _symmetry_equiv_pos_site_id
 _symmetry_equiv_pos_as_xyz
  1  'x, y, z'
  2  'x, -y, z'
loop_
 _atom_site_type_symbol
 _atom_site_label
 _atom_site_symmetry_multiplicity
 _atom_site_fract_x
 _atom_site_fract_y
 _atom_site_fract_z
 _atom_site_occupancy
  Mg  Mg0  2  0.74428000  0.24676000  0.04428000  1.0
  Mg  Mg1  2  0.75000000  0.25000000  0.87088000  1.0
  Mg  Mg2  1  0.25000000  0.00000000  0.95696000  1.0
  Mg  Mg3  1  0.25000000  0.50000000  0.95696000  1.0
  Mg  Mg4  1  0.25030000  0.00000000  0.13439000  1.0
  Mg  Mg5  1  0.25280000  0.50000000  0.13298000  1.0
  Sc  Sc6  2  0.25000000  0.25000000  0.87088000  1.0
  Sc  Sc7  2  0.25144000  0.25331000  0.04423000  1.0
  Sc  Sc8  1  0.74638000  0.50000000  0.13371000  1.0
  Sc  Sc9  1  0.74858000  0.00000000  0.13215000  1.0
  Sc  Sc10  1  0.75000000  0.00000000  0.95696000  1.0
  Sc  Sc11  1  0.75000000  0.50000000  0.95696000  1.0
  Ga  Ga12  2  0.49828000  0.24852000  0.13741000  1.0
  Ga  Ga13  2  0.50000000  0.25000000  0.95696000  1.0
  Ga  Ga14  1  0.00000000  0.00000000  0.87088000  1.0
  Ga  Ga15  1  0.00000000  0.50000000  0.87088000  1.0
  Ga  Ga16  1  0.00300000  0.00000000  0.04572000  1.0
  Ga  Ga17  1  0.98740000  0.50000000  0.04674000  1.0
  Pd  Pd18  2  0.00000000  0.25000000  0.95696000  1.0
  Pd  Pd19  2  0.00572000  0.25337000  0.12287000  1.0
  Pd  Pd20  1  0.49530000  0.00000000  0.04420000  1.0
  Pd  Pd21  1  0.50000000  0.00000000  0.87088000  1.0
  Pd  Pd22  1  0.50000000  0.50000000  0.87088000  1.0
  Pd  Pd23  1  0.51483000  0.50000000  0.04525000  1.0
  C  C24  1  0.74147000  0.00000000  0.21715000  1.0
  O  O25  1  0.73725000  0.00000000  0.25977000  1.0
