# generated using pymatgen
data_Li4Sc4In4Ge4CO
_symmetry_space_group_name_H-M   'P 1'
_cell_length_a   5.77954000
_cell_length_b   8.97372000
_cell_length_c   24.33440000
_cell_angle_alpha   90.00000000
_cell_angle_beta   90.00000000
_cell_angle_gamma   90.00000000
_symmetry_Int_Tables_number   1
_chemical_formula_structural   Li4Sc4In4Ge4CO
_chemical_formula_sum   'Li4 Sc4 In4 Ge4 C1 O1'
_cell_volume   1262.07868133
_cell_formula_units_Z   1
loop_
 _symmetry_equiv_pos_site_id
 _symmetry_equiv_pos_as_xyz
  1  'x, y, z'
loop_
 _atom_site_type_symbol
 _atom_site_label
 _atom_site_symmetry_multiplicity
 _atom_site_fract_x
 _atom_site_fract_y
 _atom_site_fract_z
 _atom_site_occupancy
  Li  Li0  1  0.24712000  0.25000000  0.97031000  1.0
  Li  Li1  1  0.68954000  0.25056000  0.09966000  1.0
  Li  Li2  1  0.24712000  0.75000000  0.97031000  1.0
  Li  Li3  1  0.69461000  0.74953000  0.09452000  1.0
  Sc  Sc4  1  0.50000000  0.00000000  0.91094000  1.0
  Sc  Sc5  1  0.98135000  0.00026000  0.02894000  1.0
  Sc  Sc6  1  0.50000000  0.50000000  0.91094000  1.0
  Sc  Sc7  1  0.98054000  0.49939000  0.02907000  1.0
  In  In8  1  0.74712000  0.25000000  0.97031000  1.0
  In  In9  1  0.19329000  0.25068000  0.09413000  1.0
  In  In10  1  0.74712000  0.75000000  0.97031000  1.0
  In  In11  1  0.19377000  0.74975000  0.09476000  1.0
  Ge  Ge12  1  0.00000000  0.00000000  0.91094000  1.0
  Ge  Ge13  1  0.47332000  0.99739000  0.04172000  1.0
  Ge  Ge14  1  0.00000000  0.50000000  0.91094000  1.0
  Ge  Ge15  1  0.47224000  0.50267000  0.04183000  1.0
  C  C16  1  0.58944000  0.25134000  0.18302000  1.0
  O  O17  1  0.53688000  0.25158000  0.22833000  1.0
