# generated using pymatgen
data_AlInCuPd
_symmetry_space_group_name_H-M   Pm
_cell_length_a   6.36006000
_cell_length_b   4.49724000
_cell_length_c   26.74590000
_cell_angle_alpha   90.00000000
_cell_angle_beta   90.00000000
_cell_angle_gamma   90.00000000
_symmetry_Int_Tables_number   6
_chemical_formula_structural   AlInCuPd
_chemical_formula_sum   'Al4 In4 Cu4 Pd4'
_cell_volume   765.00538813
_cell_formula_units_Z   4
loop_
 _symmetry_equiv_pos_site_id
 _symmetry_equiv_pos_as_xyz
  1  'x, y, z'
  2  'x, -y, z'
loop_
 _atom_site_type_symbol
 _atom_site_label
 _atom_site_symmetry_multiplicity
 _atom_site_fract_x
 _atom_site_fract_y
 _atom_site_fract_z
 _atom_site_occupancy
  Al  Al0  1  0.00000000  0.00000000  0.12611000  1.0
  Al  Al1  1  0.49796000  0.50000000  0.87408500  1.0
  Al  Al2  1  0.50000000  0.50000000  0.04204000  1.0
  Al  Al3  1  0.99878000  0.00000000  0.95036000  1.0
  In  In4  1  0.00000000  0.50000000  0.04204000  1.0
  In  In5  1  0.50000000  0.00000000  0.12611000  1.0
  In  In6  1  0.50231000  0.00000000  0.95838000  1.0
  In  In7  1  0.98812000  0.50000000  0.84919000  1.0
  Cu  Cu8  1  0.22119500  0.50000000  0.94854500  1.0
  Cu  Cu9  1  0.25000000  0.50000000  0.12611000  1.0
  Cu  Cu10  1  0.73156000  0.00000000  0.87211000  1.0
  Cu  Cu11  1  0.75000000  0.00000000  0.04204000  1.0
  Pd  Pd12  1  0.25000000  0.00000000  0.04204000  1.0
  Pd  Pd13  1  0.26058000  0.00000000  0.87402000  1.0
  Pd  Pd14  1  0.75000000  0.50000000  0.12611000  1.0
  Pd  Pd15  1  0.77201500  0.50000000  0.95319000  1.0
