# generated using pymatgen
data_Ni24Sn8CO
_symmetry_space_group_name_H-M   'P 1'
_cell_length_a   5.96895000
_cell_length_b   8.44136000
_cell_length_c   26.33100000
_cell_angle_alpha   90.00000000
_cell_angle_beta   90.00000000
_cell_angle_gamma   90.00000000
_symmetry_Int_Tables_number   1
_chemical_formula_structural   Ni24Sn8CO
_chemical_formula_sum   'Ni24 Sn8 C1 O1'
_cell_volume   1326.71523453
_cell_formula_units_Z   1
loop_
 _symmetry_equiv_pos_site_id
 _symmetry_equiv_pos_as_xyz
  1  'x, y, z'
loop_
 _atom_site_type_symbol
 _atom_site_label
 _atom_site_symmetry_multiplicity
 _atom_site_fract_x
 _atom_site_fract_y
 _atom_site_fract_z
 _atom_site_occupancy
  Ni  Ni0  1  0.25000000  0.00000000  0.95993000  1.0
  Ni  Ni1  1  0.75000000  0.50000000  0.95993000  1.0
  Ni  Ni2  1  0.75000000  0.00000000  0.95993000  1.0
  Ni  Ni3  1  0.25000000  0.50000000  0.95993000  1.0
  Ni  Ni4  1  0.75000000  0.75000000  0.87978000  1.0
  Ni  Ni5  1  0.25000000  0.25000000  0.87978000  1.0
  Ni  Ni6  1  0.25000000  0.75000000  0.87978000  1.0
  Ni  Ni7  1  0.75000000  0.25000000  0.87978000  1.0
  Ni  Ni8  1  0.00000000  0.75000000  0.95993000  1.0
  Ni  Ni9  1  0.50000000  0.00000000  0.87978000  1.0
  Ni  Ni10  1  0.00000000  0.25000000  0.95993000  1.0
  Ni  Ni11  1  0.50000000  0.50000000  0.87978000  1.0
  Ni  Ni12  1  0.23957000  0.51933000  0.11662000  1.0
  Ni  Ni13  1  0.76688000  0.01906000  0.12055000  1.0
  Ni  Ni14  1  0.76040000  0.51936000  0.11661000  1.0
  Ni  Ni15  1  0.23319000  0.01913000  0.12060000  1.0
  Ni  Ni16  1  0.72796000  0.24301000  0.04310000  1.0
  Ni  Ni17  1  0.24782000  0.74282000  0.04022000  1.0
  Ni  Ni18  1  0.27210000  0.24307000  0.04309000  1.0
  Ni  Ni19  1  0.75224000  0.74289000  0.04024000  1.0
  Ni  Ni20  1  0.99993000  0.27002000  0.11572000  1.0
  Ni  Ni21  1  0.50002000  0.49994000  0.04029000  1.0
  Ni  Ni22  1  0.00018000  0.77140000  0.11951000  1.0
  Ni  Ni23  1  0.49997000  0.99071000  0.04182000  1.0
  Sn  Sn24  1  0.00000000  0.00000000  0.87978000  1.0
  Sn  Sn25  1  0.50000000  0.25000000  0.95993000  1.0
  Sn  Sn26  1  0.50000000  0.75000000  0.95993000  1.0
  Sn  Sn27  1  0.00000000  0.50000000  0.87978000  1.0
  Sn  Sn28  1  0.99999000  0.48659000  0.03761000  1.0
  Sn  Sn29  1  0.49991000  0.76779000  0.12369000  1.0
  Sn  Sn30  1  0.50006000  0.27040000  0.13034000  1.0
  Sn  Sn31  1  0.00010000  0.00058000  0.03787000  1.0
  C  C32  1  0.99998000  0.94887000  0.16858000  1.0
  O  O33  1  0.99987000  0.94616000  0.21373000  1.0
