# generated using pymatgen
data_Zr4Ir12C
_symmetry_space_group_name_H-M   Pmm2
_cell_length_a   5.64807000
_cell_length_b   7.98758000
_cell_length_c   24.23610000
_cell_angle_alpha   90.00000000
_cell_angle_beta   90.00000000
_cell_angle_gamma   90.00000000
_symmetry_Int_Tables_number   25
_chemical_formula_structural   Zr4Ir12C
_chemical_formula_sum   'Zr4 Ir12 C1'
_cell_volume   1093.39737572
_cell_formula_units_Z   1
loop_
 _symmetry_equiv_pos_site_id
 _symmetry_equiv_pos_as_xyz
  1  'x, y, z'
  2  '-x, -y, z'
  3  '-x, y, z'
  4  'x, -y, z'
loop_
 _atom_site_type_symbol
 _atom_site_label
 _atom_site_symmetry_multiplicity
 _atom_site_fract_x
 _atom_site_fract_y
 _atom_site_fract_z
 _atom_site_occupancy
  Zr  Zr0  1  0.00000000  0.00000000  0.08739000  1.0
  Zr  Zr1  1  0.00000000  0.50000000  0.08739000  1.0
  Zr  Zr2  1  0.50000000  0.00000000  0.98302000  1.0
  Zr  Zr3  1  0.50000000  0.50000000  0.96084000  1.0
  Ir  Ir4  4  0.24805000  0.19918000  0.91235000  1.0
  Ir  Ir5  4  0.25000000  0.24999000  0.02913000  1.0
  Ir  Ir6  1  0.00000000  0.00000000  0.97954000  1.0
  Ir  Ir7  1  0.00000000  0.50000000  0.96996000  1.0
  Ir  Ir8  1  0.50000000  0.00000000  0.08739000  1.0
  Ir  Ir9  1  0.50000000  0.50000000  0.08739000  1.0
  C  C10  1  0.50000000  0.00000000  0.88921000  1.0
