# generated using pymatgen
data_Pd12Pb4CO
_symmetry_space_group_name_H-M   'P 1'
_cell_length_a   8.32195000
_cell_length_b   5.88450000
_cell_length_c   24.41340000
_cell_angle_alpha   90.00000000
_cell_angle_beta   90.00000000
_cell_angle_gamma   90.00000000
_symmetry_Int_Tables_number   1
_chemical_formula_structural   Pd12Pb4CO
_chemical_formula_sum   'Pd12 Pb4 C1 O1'
_cell_volume   1195.53676541
_cell_formula_units_Z   1
loop_
 _symmetry_equiv_pos_site_id
 _symmetry_equiv_pos_as_xyz
  1  'x, y, z'
loop_
 _atom_site_type_symbol
 _atom_site_label
 _atom_site_symmetry_multiplicity
 _atom_site_fract_x
 _atom_site_fract_y
 _atom_site_fract_z
 _atom_site_occupancy
  Pd  Pd0  1  0.75000000  0.50000000  0.90961000  1.0
  Pd  Pd1  1  0.50000000  0.25000000  0.96987000  1.0
  Pd  Pd2  1  0.50000000  0.75000000  0.96987000  1.0
  Pd  Pd3  1  0.74914000  0.00078000  0.02847000  1.0
  Pd  Pd4  1  0.50000000  0.77107000  0.08671000  1.0
  Pd  Pd5  1  0.50000000  0.25092000  0.08386000  1.0
  Pd  Pd6  1  0.25000000  0.50000000  0.90961000  1.0
  Pd  Pd7  1  0.00000000  0.25000000  0.96987000  1.0
  Pd  Pd8  1  0.00000000  0.75000000  0.96987000  1.0
  Pd  Pd9  1  0.25086000  0.00078000  0.02847000  1.0
  Pd  Pd10  1  0.00000000  0.76246000  0.08410000  1.0
  Pd  Pd11  1  0.00000000  0.23781000  0.08395000  1.0
  Pb  Pb12  1  0.75000000  0.00000000  0.90961000  1.0
  Pb  Pb13  1  0.75317000  0.49987000  0.03401000  1.0
  Pb  Pb14  1  0.25000000  0.00000000  0.90961000  1.0
  Pb  Pb15  1  0.24683000  0.49987000  0.03401000  1.0
  C  C16  1  0.50000000  0.74776000  0.16505000  1.0
  O  O17  1  0.50000000  0.74419000  0.21214000  1.0
