# generated using pymatgen
data_Y8Sc8Ga8Pd8CO
_symmetry_space_group_name_H-M   Pmm2
_cell_length_a   7.06732000
_cell_length_b   9.48206000
_cell_length_c   27.39200000
_cell_angle_alpha   90.00000000
_cell_angle_beta   90.00000000
_cell_angle_gamma   90.00000000
_symmetry_Int_Tables_number   25
_chemical_formula_structural   Y8Sc8Ga8Pd8CO
_chemical_formula_sum   'Y8 Sc8 Ga8 Pd8 C1 O1'
_cell_volume   1835.61331043
_cell_formula_units_Z   1
loop_
 _symmetry_equiv_pos_site_id
 _symmetry_equiv_pos_as_xyz
  1  'x, y, z'
  2  '-x, -y, z'
  3  '-x, y, z'
  4  'x, -y, z'
loop_
 _atom_site_type_symbol
 _atom_site_label
 _atom_site_symmetry_multiplicity
 _atom_site_fract_x
 _atom_site_fract_y
 _atom_site_fract_z
 _atom_site_occupancy
  Y  Y0  4  0.25000000  0.25000000  0.95502000  1.0
  Y  Y1  4  0.25442000  0.25652000  0.14145000  1.0
  Sc  Sc2  2  0.24853000  0.50000000  0.04370000  1.0
  Sc  Sc3  2  0.25000000  0.00000000  0.86507000  1.0
  Sc  Sc4  2  0.25000000  0.50000000  0.86507000  1.0
  Sc  Sc5  2  0.25309000  0.00000000  0.04326000  1.0
  Ga  Ga6  2  0.00000000  0.24428000  0.05266000  1.0
  Ga  Ga7  2  0.00000000  0.25000000  0.86507000  1.0
  Ga  Ga8  2  0.50000000  0.25000000  0.86507000  1.0
  Ga  Ga9  2  0.50000000  0.25104000  0.05150000  1.0
  Pd  Pd10  1  0.00000000  0.00000000  0.12467000  1.0
  Pd  Pd11  1  0.00000000  0.00000000  0.95502000  1.0
  Pd  Pd12  1  0.00000000  0.50000000  0.12037000  1.0
  Pd  Pd13  1  0.00000000  0.50000000  0.95502000  1.0
  Pd  Pd14  1  0.50000000  0.00000000  0.11944000  1.0
  Pd  Pd15  1  0.50000000  0.00000000  0.95502000  1.0
  Pd  Pd16  1  0.50000000  0.50000000  0.11969000  1.0
  Pd  Pd17  1  0.50000000  0.50000000  0.95502000  1.0
  C  C18  1  0.00000000  0.00000000  0.19629000  1.0
  O  O19  1  0.00000000  0.00000000  0.23920000  1.0
