data_image0
_chemical_formula_structural       Li8Al8Sn8Pd8CO
_chemical_formula_sum              "Li8 Al8 Sn8 Pd8 C1 O1"
_cell_length_a       6.48942
_cell_length_b       9.17742
_cell_length_c       26.8831
_cell_angle_alpha    90
_cell_angle_beta     90
_cell_angle_gamma    90

_space_group_name_H-M_alt    "P 1"
_space_group_IT_number       1

loop_
  _space_group_symop_operation_xyz
  'x, y, z'

loop_
  _atom_site_type_symbol
  _atom_site_label
  _atom_site_symmetry_multiplicity
  _atom_site_fract_x
  _atom_site_fract_y
  _atom_site_fract_z
  _atom_site_occupancy
  Li  Li1       1.0  0.75000  0.00000  0.95733  1.0000
  Li  Li2       1.0  0.75000  0.50000  0.95733  1.0000
  Li  Li3       1.0  0.25000  0.25000  0.87198  1.0000
  Li  Li4       1.0  0.25000  0.75000  0.87198  1.0000
  Li  Li5       1.0  0.71761  0.49569  0.14842  1.0000
  Li  Li6       1.0  0.71761  0.00431  0.14842  1.0000
  Li  Li7       1.0  0.22361  0.75000  0.04452  1.0000
  Li  Li8       1.0  0.22177  0.25000  0.04139  1.0000
  Al  Al1       1.0  0.00000  0.00000  0.87198  1.0000
  Al  Al2       1.0  0.00000  0.50000  0.87198  1.0000
  Al  Al3       1.0  0.50000  0.75000  0.95733  1.0000
  Al  Al4       1.0  0.50000  0.25000  0.95733  1.0000
  Al  Al5       1.0  0.97060  0.50042  0.04972  1.0000
  Al  Al6       1.0  0.97060  0.99958  0.04972  1.0000
  Al  Al7       1.0  0.45678  0.25000  0.11910  1.0000
  Al  Al8       1.0  0.47011  0.75000  0.12702  1.0000
  Sn  Sn1       1.0  0.00000  0.25000  0.95733  1.0000
  Sn  Sn2       1.0  0.00000  0.75000  0.95733  1.0000
  Sn  Sn3       1.0  0.50000  0.50000  0.87198  1.0000
  Sn  Sn4       1.0  0.50000  0.00000  0.87198  1.0000
  Sn  Sn5       1.0  0.97457  0.75000  0.13472  1.0000
  Sn  Sn6       1.0  0.00416  0.25000  0.13852  1.0000
  Sn  Sn7       1.0  0.50528  0.99372  0.04231  1.0000
  Sn  Sn8       1.0  0.50528  0.50628  0.04231  1.0000
  Pd  Pd1       1.0  0.25000  0.00000  0.95733  1.0000
  Pd  Pd2       1.0  0.25000  0.50000  0.95733  1.0000
  Pd  Pd3       1.0  0.75000  0.25000  0.87198  1.0000
  Pd  Pd4       1.0  0.75000  0.75000  0.87198  1.0000
  Pd  Pd5       1.0  0.24129  0.50459  0.11842  1.0000
  Pd  Pd6       1.0  0.24129  0.99541  0.11842  1.0000
  Pd  Pd7       1.0  0.75863  0.75000  0.03765  1.0000
  Pd  Pd8       1.0  0.74736  0.25000  0.04508  1.0000
  C   C1        1.0  0.54170  0.25000  0.18934  1.0000
  O   O1        1.0  0.55354  0.25000  0.23277  1.0000
