# generated using pymatgen
data_Li8Al8Sn8Pd8CO
_symmetry_space_group_name_H-M   'P 1'
_cell_length_a   9.17742000
_cell_length_b   6.48942000
_cell_length_c   26.88310000
_cell_angle_alpha   90.00000000
_cell_angle_beta   90.00000000
_cell_angle_gamma   90.00000000
_symmetry_Int_Tables_number   1
_chemical_formula_structural   Li8Al8Sn8Pd8CO
_chemical_formula_sum   'Li8 Al8 Sn8 Pd8 C1 O1'
_cell_volume   1601.05347627
_cell_formula_units_Z   1
loop_
 _symmetry_equiv_pos_site_id
 _symmetry_equiv_pos_as_xyz
  1  'x, y, z'
loop_
 _atom_site_type_symbol
 _atom_site_label
 _atom_site_symmetry_multiplicity
 _atom_site_fract_x
 _atom_site_fract_y
 _atom_site_fract_z
 _atom_site_occupancy
  Li  Li0  1  0.75000000  0.75000000  0.04267000  1.0
  Li  Li1  1  0.25000000  0.75000000  0.04267000  1.0
  Li  Li2  1  0.00000000  0.25000000  0.12802000  1.0
  Li  Li3  1  0.50000000  0.25000000  0.12802000  1.0
  Li  Li4  1  0.24569000  0.71761000  0.85158000  1.0
  Li  Li5  1  0.75431000  0.71761000  0.85158000  1.0
  Li  Li6  1  0.50000000  0.22361000  0.95548000  1.0
  Li  Li7  1  0.00000000  0.22177000  0.95861000  1.0
  Al  Al8  1  0.75000000  0.00000000  0.12802000  1.0
  Al  Al9  1  0.25000000  0.00000000  0.12802000  1.0
  Al  Al10  1  0.50000000  0.50000000  0.04267000  1.0
  Al  Al11  1  0.00000000  0.50000000  0.04267000  1.0
  Al  Al12  1  0.25042000  0.97060000  0.95028000  1.0
  Al  Al13  1  0.74958000  0.97060000  0.95028000  1.0
  Al  Al14  1  0.00000000  0.45678000  0.88090000  1.0
  Al  Al15  1  0.50000000  0.47011000  0.87298000  1.0
  Sn  Sn16  1  0.00000000  0.00000000  0.04267000  1.0
  Sn  Sn17  1  0.50000000  1.00000000  0.04267000  1.0
  Sn  Sn18  1  0.25000000  0.50000000  0.12802000  1.0
  Sn  Sn19  1  0.75000000  0.50000000  0.12802000  1.0
  Sn  Sn20  1  0.50000000  0.97457000  0.86528000  1.0
  Sn  Sn21  1  0.00000000  0.00416000  0.86148000  1.0
  Sn  Sn22  1  0.74372000  0.50528000  0.95769000  1.0
  Sn  Sn23  1  0.25628000  0.50528000  0.95769000  1.0
  Pd  Pd24  1  0.75000000  0.25000000  0.04267000  1.0
  Pd  Pd25  1  0.25000000  0.25000000  0.04267000  1.0
  Pd  Pd26  1  0.00000000  0.75000000  0.12802000  1.0
  Pd  Pd27  1  0.50000000  0.75000000  0.12802000  1.0
  Pd  Pd28  1  0.25459000  0.24129000  0.88158000  1.0
  Pd  Pd29  1  0.74541000  0.24129000  0.88158000  1.0
  Pd  Pd30  1  0.50000000  0.75863000  0.96235000  1.0
  Pd  Pd31  1  0.00000000  0.74736000  0.95492000  1.0
  C  C32  1  0.00000000  0.54170000  0.81066000  1.0
  O  O33  1  0.00000000  0.55354000  0.76723000  1.0
