# generated using pymatgen
data_Li8Al8Sn8Pd8CO
_symmetry_space_group_name_H-M   Pm
_cell_length_a   6.48942000
_cell_length_b   9.17742000
_cell_length_c   26.88310000
_cell_angle_alpha   90.00000000
_cell_angle_beta   90.00000000
_cell_angle_gamma   90.00000000
_symmetry_Int_Tables_number   6
_chemical_formula_structural   Li8Al8Sn8Pd8CO
_chemical_formula_sum   'Li8 Al8 Sn8 Pd8 C1 O1'
_cell_volume   1601.05347627
_cell_formula_units_Z   1
loop_
 _symmetry_equiv_pos_site_id
 _symmetry_equiv_pos_as_xyz
  1  'x, y, z'
  2  'x, -y, z'
loop_
 _atom_site_type_symbol
 _atom_site_label
 _atom_site_symmetry_multiplicity
 _atom_site_fract_x
 _atom_site_fract_y
 _atom_site_fract_z
 _atom_site_occupancy
  Li  Li0  2  0.71761000  0.24569000  0.14842000  1.0
  Li  Li1  2  0.75000000  0.25000000  0.95733000  1.0
  Li  Li2  1  0.22177000  0.00000000  0.04139000  1.0
  Li  Li3  1  0.22361000  0.50000000  0.04452000  1.0
  Li  Li4  1  0.25000000  0.00000000  0.87198000  1.0
  Li  Li5  1  0.25000000  0.50000000  0.87198000  1.0
  Al  Al6  2  0.00000000  0.25000000  0.87198000  1.0
  Al  Al7  2  0.97060000  0.25042000  0.04972000  1.0
  Al  Al8  1  0.45678000  0.00000000  0.11910000  1.0
  Al  Al9  1  0.47011000  0.50000000  0.12702000  1.0
  Al  Al10  1  0.50000000  0.00000000  0.95733000  1.0
  Al  Al11  1  0.50000000  0.50000000  0.95733000  1.0
  Sn  Sn12  2  0.50000000  0.25000000  0.87198000  1.0
  Sn  Sn13  2  0.50528000  0.25628000  0.04231000  1.0
  Sn  Sn14  1  -0.00000000  0.50000000  0.95733000  1.0
  Sn  Sn15  1  0.00000000  0.00000000  0.95733000  1.0
  Sn  Sn16  1  0.00416000  0.00000000  0.13852000  1.0
  Sn  Sn17  1  0.97457000  0.50000000  0.13472000  1.0
  Pd  Pd18  2  0.24129000  0.25459000  0.11842000  1.0
  Pd  Pd19  2  0.25000000  0.25000000  0.95733000  1.0
  Pd  Pd20  1  0.74736000  0.00000000  0.04508000  1.0
  Pd  Pd21  1  0.75000000  0.00000000  0.87198000  1.0
  Pd  Pd22  1  0.75000000  0.50000000  0.87198000  1.0
  Pd  Pd23  1  0.75863000  0.50000000  0.03765000  1.0
  C  C24  1  0.54170000  0.00000000  0.18934000  1.0
  O  O25  1  0.55354000  0.00000000  0.23277000  1.0
