# generated using pymatgen
data_Li8Mg8Al8Cu8CO
_symmetry_space_group_name_H-M   'P 1'
_cell_length_a   8.75944000
_cell_length_b   6.19386000
_cell_length_c   26.56960000
_cell_angle_alpha   90.00000000
_cell_angle_beta   90.00000000
_cell_angle_gamma   90.00000000
_symmetry_Int_Tables_number   1
_chemical_formula_structural   Li8Mg8Al8Cu8CO
_chemical_formula_sum   'Li8 Mg8 Al8 Cu8 C1 O1'
_cell_volume   1441.52687377
_cell_formula_units_Z   1
loop_
 _symmetry_equiv_pos_site_id
 _symmetry_equiv_pos_as_xyz
  1  'x, y, z'
loop_
 _atom_site_type_symbol
 _atom_site_label
 _atom_site_symmetry_multiplicity
 _atom_site_fract_x
 _atom_site_fract_y
 _atom_site_fract_z
 _atom_site_occupancy
  Li  Li0  1  0.00000000  0.25000000  0.04121000  1.0
  Li  Li1  1  0.50000000  0.25000000  0.04121000  1.0
  Li  Li2  1  0.24997000  0.75000000  0.12363000  1.0
  Li  Li3  1  0.75003000  0.75000000  0.12363000  1.0
  Li  Li4  1  0.50000000  0.32095000  0.83820000  1.0
  Li  Li5  1  0.00000000  0.29838000  0.85125000  1.0
  Li  Li6  1  0.74914000  0.76331000  0.95775000  1.0
  Li  Li7  1  0.25086000  0.76331000  0.95775000  1.0
  Mg  Mg8  1  0.24997000  1.00000000  0.04121000  1.0
  Mg  Mg9  1  0.75003000  1.00000000  0.04121000  1.0
  Mg  Mg10  1  0.50000000  0.50000000  0.12363000  1.0
  Mg  Mg11  1  0.00000000  0.50000000  0.12363000  1.0
  Mg  Mg12  1  0.74382000  0.01847000  0.87141000  1.0
  Mg  Mg13  1  0.25618000  0.01847000  0.87141000  1.0
  Mg  Mg14  1  0.00000000  0.49633000  0.95709000  1.0
  Mg  Mg15  1  0.50000000  0.49048000  0.95576000  1.0
  Al  Al16  1  0.00000000  0.00000000  0.12363000  1.0
  Al  Al17  1  0.50000000  1.00000000  0.12363000  1.0
  Al  Al18  1  0.74997000  0.50000000  0.04121000  1.0
  Al  Al19  1  0.25003000  0.50000000  0.04121000  1.0
  Al  Al20  1  0.50000000  0.01519000  0.95288000  1.0
  Al  Al21  1  0.00000000  0.01636000  0.95210000  1.0
  Al  Al22  1  0.25118000  0.51824000  0.87696000  1.0
  Al  Al23  1  0.74882000  0.51824000  0.87696000  1.0
  Cu  Cu24  1  0.00000000  0.75000000  0.04121000  1.0
  Cu  Cu25  1  0.50000000  0.75000000  0.04121000  1.0
  Cu  Cu26  1  0.24997000  0.25000000  0.12363000  1.0
  Cu  Cu27  1  0.75003000  0.25000000  0.12363000  1.0
  Cu  Cu28  1  0.50000000  0.74526000  0.87943000  1.0
  Cu  Cu29  1  0.00000000  0.74658000  0.88035000  1.0
  Cu  Cu30  1  0.75038000  0.25252000  0.96081000  1.0
  Cu  Cu31  1  0.24962000  0.25252000  0.96081000  1.0
  C  C32  1  0.00000000  0.22845000  0.77627000  1.0
  O  O33  1  0.00000000  0.19584000  0.73392000  1.0
