# generated using pymatgen
data_Li8Mg8Al8Cu8CO
_symmetry_space_group_name_H-M   Pm
_cell_length_a   6.19386000
_cell_length_b   8.75944000
_cell_length_c   26.56960000
_cell_angle_alpha   90.00000000
_cell_angle_beta   90.00000000
_cell_angle_gamma   90.00000000
_symmetry_Int_Tables_number   6
_chemical_formula_structural   Li8Mg8Al8Cu8CO
_chemical_formula_sum   'Li8 Mg8 Al8 Cu8 C1 O1'
_cell_volume   1441.52687377
_cell_formula_units_Z   1
loop_
 _symmetry_equiv_pos_site_id
 _symmetry_equiv_pos_as_xyz
  1  'x, y, z'
  2  'x, -y, z'
loop_
 _atom_site_type_symbol
 _atom_site_label
 _atom_site_symmetry_multiplicity
 _atom_site_fract_x
 _atom_site_fract_y
 _atom_site_fract_z
 _atom_site_occupancy
  Li  Li0  2  0.75000000  0.24997000  0.87637000  1.0
  Li  Li1  2  0.76331000  0.25086000  0.04225000  1.0
  Li  Li2  1  0.25000000  0.00000000  0.95879000  1.0
  Li  Li3  1  0.25000000  0.50000000  0.95879000  1.0
  Li  Li4  1  0.29838000  0.00000000  0.14875000  1.0
  Li  Li5  1  0.32095000  0.50000000  0.16180000  1.0
  Mg  Mg6  2  -0.00000000  0.24997000  0.95879000  1.0
  Mg  Mg7  2  0.01847000  0.25618000  0.12859000  1.0
  Mg  Mg8  1  0.49048000  0.50000000  0.04424000  1.0
  Mg  Mg9  1  0.49633000  0.00000000  0.04291000  1.0
  Mg  Mg10  1  0.50000000  0.00000000  0.87637000  1.0
  Mg  Mg11  1  0.50000000  0.50000000  0.87637000  1.0
  Al  Al12  2  0.50000000  0.25003000  0.95879000  1.0
  Al  Al13  2  0.51824000  0.25118000  0.12304000  1.0
  Al  Al14  1  -0.00000000  0.50000000  0.87637000  1.0
  Al  Al15  1  0.00000000  0.00000000  0.87637000  1.0
  Al  Al16  1  0.01519000  0.50000000  0.04712000  1.0
  Al  Al17  1  0.01636000  0.00000000  0.04790000  1.0
  Cu  Cu18  2  0.25000000  0.24997000  0.87637000  1.0
  Cu  Cu19  2  0.25252000  0.24962000  0.03919000  1.0
  Cu  Cu20  1  0.74526000  0.50000000  0.12057000  1.0
  Cu  Cu21  1  0.74658000  0.00000000  0.11965000  1.0
  Cu  Cu22  1  0.75000000  0.00000000  0.95879000  1.0
  Cu  Cu23  1  0.75000000  0.50000000  0.95879000  1.0
  C  C24  1  0.22845000  0.00000000  0.22373000  1.0
  O  O25  1  0.19584000  0.00000000  0.26608000  1.0
