data_image0
_chemical_formula_structural       Li4Y4Ag4Sn4CO
_chemical_formula_sum              "Li4 Y4 Ag4 Sn4 C1 O1"
_cell_length_a       7.11214
_cell_length_b       7.11214
_cell_length_c       25.3341
_cell_angle_alpha    90
_cell_angle_beta     90
_cell_angle_gamma    90

_space_group_name_H-M_alt    "P 1"
_space_group_IT_number       1

loop_
  _space_group_symop_operation_xyz
  'x, y, z'

loop_
  _atom_site_type_symbol
  _atom_site_label
  _atom_site_symmetry_multiplicity
  _atom_site_fract_x
  _atom_site_fract_y
  _atom_site_fract_z
  _atom_site_occupancy
  Li  Li1       1.0  0.24530  0.24530  0.03639  1.0000
  Li  Li2       1.0  0.25000  0.75000  0.89472  1.0000
  Li  Li3       1.0  0.75000  0.25000  0.89472  1.0000
  Li  Li4       1.0  0.75471  0.75470  0.03639  1.0000
  Y   Y1        1.0  0.75058  0.24943  0.03730  1.0000
  Y   Y2        1.0  0.75000  0.75000  0.89472  1.0000
  Y   Y3        1.0  0.25000  0.25000  0.89472  1.0000
  Y   Y4        1.0  0.24942  0.75057  0.03730  1.0000
  Ag  Ag1       1.0  0.99997  0.99998  0.11093  1.0000
  Ag  Ag2       1.0  0.00000  0.50000  0.96491  1.0000
  Ag  Ag3       1.0  0.50000  0.00000  0.96491  1.0000
  Ag  Ag4       1.0  0.50001  0.50001  0.10639  1.0000
  Sn  Sn1       1.0  0.00000  0.50000  0.10641  1.0000
  Sn  Sn2       1.0  0.00000  0.00000  0.96491  1.0000
  Sn  Sn3       1.0  0.50000  0.50000  0.96491  1.0000
  Sn  Sn4       1.0  0.50001  0.99999  0.10641  1.0000
  C   C1        1.0  0.00001  0.00000  0.20755  1.0000
  O   O1        1.0  1.00000  0.00001  0.25244  1.0000
