# generated using pymatgen
data_Zn8Pd8C
_symmetry_space_group_name_H-M   'P 1'
_cell_length_a   5.79546000
_cell_length_b   5.79546000
_cell_length_c   25.17490000
_cell_angle_alpha   90.00000000
_cell_angle_beta   90.00000000
_cell_angle_gamma   90.00000000
_symmetry_Int_Tables_number   1
_chemical_formula_structural   Zn8Pd8C
_chemical_formula_sum   'Zn8 Pd8 C1'
_cell_volume   845.55834396
_cell_formula_units_Z   1
loop_
 _symmetry_equiv_pos_site_id
 _symmetry_equiv_pos_as_xyz
  1  'x, y, z'
loop_
 _atom_site_type_symbol
 _atom_site_label
 _atom_site_symmetry_multiplicity
 _atom_site_fract_x
 _atom_site_fract_y
 _atom_site_fract_z
 _atom_site_occupancy
  Zn  Zn0  1  0.25000000  0.25000000  0.97392000  1.0
  Zn  Zn1  1  0.25000000  0.25000000  0.11096000  1.0
  Zn  Zn2  1  0.25000000  0.75000000  0.97392000  1.0
  Zn  Zn3  1  0.25000000  0.75000000  0.11096000  1.0
  Zn  Zn4  1  0.75000000  0.25000000  0.97392000  1.0
  Zn  Zn5  1  0.75000000  0.25000000  0.11096000  1.0
  Zn  Zn6  1  0.75000000  0.75000000  0.97392000  1.0
  Zn  Zn7  1  0.75000000  0.75000000  0.11096000  1.0
  Pd  Pd8  1  0.00000000  0.00000000  0.90540000  1.0
  Pd  Pd9  1  0.00000000  0.00000000  0.04244000  1.0
  Pd  Pd10  1  0.00000000  0.50000000  0.90540000  1.0
  Pd  Pd11  1  0.00000000  0.50000000  0.04244000  1.0
  Pd  Pd12  1  0.50000000  0.00000000  0.90540000  1.0
  Pd  Pd13  1  0.50000000  0.00000000  0.04244000  1.0
  Pd  Pd14  1  0.50000000  0.50000000  0.90540000  1.0
  Pd  Pd15  1  0.50000000  0.50000000  0.04244000  1.0
  C  C16  1  0.00000000  0.00000000  0.14274000  1.0
