# generated using pymatgen
data_Hf8Al8Cu16C
_symmetry_space_group_name_H-M   'P 1'
_cell_length_a   6.21964000
_cell_length_b   8.79589000
_cell_length_c   26.59690000
_cell_angle_alpha   90.00000000
_cell_angle_beta   90.00000000
_cell_angle_gamma   90.00000000
_symmetry_Int_Tables_number   1
_chemical_formula_structural   Hf8Al8Cu16C
_chemical_formula_sum   'Hf8 Al8 Cu16 C1'
_cell_volume   1455.04377030
_cell_formula_units_Z   1
loop_
 _symmetry_equiv_pos_site_id
 _symmetry_equiv_pos_as_xyz
  1  'x, y, z'
loop_
 _atom_site_type_symbol
 _atom_site_label
 _atom_site_symmetry_multiplicity
 _atom_site_fract_x
 _atom_site_fract_y
 _atom_site_fract_z
 _atom_site_occupancy
  Hf  Hf0  1  0.00000000  0.00000000  0.87598000  1.0
  Hf  Hf1  1  0.50000000  0.25000000  0.95866000  1.0
  Hf  Hf2  1  0.50000000  0.75000000  0.95866000  1.0
  Hf  Hf3  1  0.00000000  0.50000000  0.87598000  1.0
  Hf  Hf4  1  0.00000000  0.50000000  0.04177000  1.0
  Hf  Hf5  1  0.50000000  0.75959000  0.12119000  1.0
  Hf  Hf6  1  0.50000000  0.24041000  0.12119000  1.0
  Hf  Hf7  1  0.00000000  0.00000000  0.04341000  1.0
  Al  Al8  1  0.00000000  0.75000000  0.95866000  1.0
  Al  Al9  1  0.50000000  0.00000000  0.87598000  1.0
  Al  Al10  1  0.00000000  0.25000000  0.95866000  1.0
  Al  Al11  1  0.50000000  0.50000000  0.87598000  1.0
  Al  Al12  1  0.00000000  0.25863000  0.12361000  1.0
  Al  Al13  1  0.50000000  0.50000000  0.04119000  1.0
  Al  Al14  1  0.00000000  0.74137000  0.12361000  1.0
  Al  Al15  1  0.50000000  0.00000000  0.04393000  1.0
  Cu  Cu16  1  0.25000000  0.00000000  0.95866000  1.0
  Cu  Cu17  1  0.75000000  0.50000000  0.95866000  1.0
  Cu  Cu18  1  0.75000000  0.00000000  0.95866000  1.0
  Cu  Cu19  1  0.25000000  0.50000000  0.95866000  1.0
  Cu  Cu20  1  0.75000000  0.75000000  0.87598000  1.0
  Cu  Cu21  1  0.25000000  0.25000000  0.87598000  1.0
  Cu  Cu22  1  0.25000000  0.75000000  0.87598000  1.0
  Cu  Cu23  1  0.75000000  0.25000000  0.87598000  1.0
  Cu  Cu24  1  0.24874000  0.50000000  0.12549000  1.0
  Cu  Cu25  1  0.81036000  0.00000000  0.13528000  1.0
  Cu  Cu26  1  0.75126000  0.50000000  0.12549000  1.0
  Cu  Cu27  1  0.18964000  0.00000000  0.13528000  1.0
  Cu  Cu28  1  0.75066000  0.25160000  0.03951000  1.0
  Cu  Cu29  1  0.24934000  0.74840000  0.03951000  1.0
  Cu  Cu30  1  0.24934000  0.25160000  0.03951000  1.0
  Cu  Cu31  1  0.75066000  0.74840000  0.03951000  1.0
  C  C32  1  0.50000000  0.00000000  0.12922000  1.0
