# generated using pymatgen
data_Hf8Al8Cu16C
_symmetry_space_group_name_H-M   Pmm2
_cell_length_a   6.21964000
_cell_length_b   8.79589000
_cell_length_c   26.59690000
_cell_angle_alpha   90.00000000
_cell_angle_beta   90.00000000
_cell_angle_gamma   90.00000000
_symmetry_Int_Tables_number   25
_chemical_formula_structural   Hf8Al8Cu16C
_chemical_formula_sum   'Hf8 Al8 Cu16 C1'
_cell_volume   1455.04377030
_cell_formula_units_Z   1
loop_
 _symmetry_equiv_pos_site_id
 _symmetry_equiv_pos_as_xyz
  1  'x, y, z'
  2  '-x, -y, z'
  3  '-x, y, z'
  4  'x, -y, z'
loop_
 _atom_site_type_symbol
 _atom_site_label
 _atom_site_symmetry_multiplicity
 _atom_site_fract_x
 _atom_site_fract_y
 _atom_site_fract_z
 _atom_site_occupancy
  Hf  Hf0  2  0.50000000  0.24041000  0.12119000  1.0
  Hf  Hf1  2  0.50000000  0.25000000  0.95866000  1.0
  Hf  Hf2  1  0.00000000  0.00000000  0.04341000  1.0
  Hf  Hf3  1  0.00000000  0.00000000  0.87598000  1.0
  Hf  Hf4  1  0.00000000  0.50000000  0.04177000  1.0
  Hf  Hf5  1  0.00000000  0.50000000  0.87598000  1.0
  Al  Al6  2  0.00000000  0.25000000  0.95866000  1.0
  Al  Al7  2  0.00000000  0.25863000  0.12361000  1.0
  Al  Al8  1  0.50000000  0.00000000  0.04393000  1.0
  Al  Al9  1  0.50000000  0.00000000  0.87598000  1.0
  Al  Al10  1  0.50000000  0.50000000  0.04119000  1.0
  Al  Al11  1  0.50000000  0.50000000  0.87598000  1.0
  Cu  Cu12  4  0.24934000  0.25160000  0.03951000  1.0
  Cu  Cu13  4  0.25000000  0.25000000  0.87598000  1.0
  Cu  Cu14  2  0.18964000  0.00000000  0.13528000  1.0
  Cu  Cu15  2  0.24874000  0.50000000  0.12549000  1.0
  Cu  Cu16  2  0.25000000  0.00000000  0.95866000  1.0
  Cu  Cu17  2  0.25000000  0.50000000  0.95866000  1.0
  C  C18  1  0.50000000  0.00000000  0.12922000  1.0
