# generated using pymatgen
data_Y4In4Ge4Pd4C
_symmetry_space_group_name_H-M   Pm
_cell_length_a   5.95203000
_cell_length_b   9.45024000
_cell_length_c   24.43650000
_cell_angle_alpha   90.00000000
_cell_angle_beta   90.00000000
_cell_angle_gamma   90.00000000
_symmetry_Int_Tables_number   6
_chemical_formula_structural   Y4In4Ge4Pd4C
_chemical_formula_sum   'Y4 In4 Ge4 Pd4 C1'
_cell_volume   1374.50698858
_cell_formula_units_Z   1
loop_
 _symmetry_equiv_pos_site_id
 _symmetry_equiv_pos_as_xyz
  1  'x, y, z'
  2  'x, -y, z'
loop_
 _atom_site_type_symbol
 _atom_site_label
 _atom_site_symmetry_multiplicity
 _atom_site_fract_x
 _atom_site_fract_y
 _atom_site_fract_z
 _atom_site_occupancy
  Y  Y0  2  0.49588000  0.20349000  0.09436000  1.0
  Y  Y1  2  0.94453000  0.25000000  0.96974000  1.0
  In  In2  1  0.17832000  0.50000000  0.05138000  1.0
  In  In3  1  0.24390000  0.00000000  0.01632000  1.0
  In  In4  1  0.66680000  0.00000000  0.90922000  1.0
  In  In5  1  0.66680000  0.50000000  0.90922000  1.0
  Ge  Ge6  2  0.44453000  0.25000000  0.96974000  1.0
  Ge  Ge7  2  0.99617000  0.15102000  0.10629000  1.0
  Pd  Pd8  1  0.16680000  0.00000000  0.90922000  1.0
  Pd  Pd9  1  0.16680000  0.50000000  0.90922000  1.0
  Pd  Pd10  1  0.67417000  0.50000000  0.02970000  1.0
  Pd  Pd11  1  0.75810000  0.00000000  0.03067000  1.0
  C  C12  1  0.25438000  0.00000000  0.11379000  1.0
