# generated using pymatgen
data_Y4In4Ge4Pd4CO
_symmetry_space_group_name_H-M   P1
_cell_length_a   5.95203000
_cell_length_b   9.45024000
_cell_length_c   24.43650000
_cell_angle_alpha   90.00000000
_cell_angle_beta   90.00000000
_cell_angle_gamma   90.00000000
_symmetry_Int_Tables_number   1
_chemical_formula_structural   Y4In4Ge4Pd4CO
_chemical_formula_sum   'Y4 In4 Ge4 Pd4 C1 O1'
_cell_volume   1374.50698858
_cell_formula_units_Z   1
loop_
 _symmetry_equiv_pos_site_id
 _symmetry_equiv_pos_as_xyz
  1  'x, y, z'
loop_
 _atom_site_type_symbol
 _atom_site_label
 _atom_site_symmetry_multiplicity
 _atom_site_fract_x
 _atom_site_fract_y
 _atom_site_fract_z
 _atom_site_occupancy
  Y  Y0  1  0.50000000  0.00000000  0.90922000  1.0
  Y  Y1  1  0.50000000  0.50000000  0.90922000  1.0
  Y  Y2  1  0.90850000  0.99713000  0.03143000  1.0
  Y  Y3  1  0.90865000  0.50288000  0.03141000  1.0
  In  In4  1  0.22227000  0.25000000  0.96974000  1.0
  In  In5  1  0.22227000  0.75000000  0.96974000  1.0
  In  In6  1  0.61476000  0.25010000  0.08583000  1.0
  In  In7  1  0.62139000  0.74991000  0.09495000  1.0
  Ge  Ge8  1  0.00000000  0.00000000  0.90922000  1.0
  Ge  Ge9  1  0.00000000  0.50000000  0.90922000  1.0
  Ge  Ge10  1  0.40447000  0.99642000  0.04710000  1.0
  Ge  Ge11  1  0.40482000  0.50355000  0.04707000  1.0
  Pd  Pd12  1  0.12685000  0.25002000  0.08528000  1.0
  Pd  Pd13  1  0.12740000  0.74998000  0.08042000  1.0
  Pd  Pd14  1  0.72227000  0.25000000  0.96974000  1.0
  Pd  Pd15  1  0.72227000  0.75000000  0.96974000  1.0
  C  C16  1  0.11665000  0.25002000  0.16598000  1.0
  O  O17  1  0.11695000  0.25003000  0.21306000  1.0
