# generated using pymatgen
data_Li4Mg4Ag4Sn4CO
_symmetry_space_group_name_H-M   'P 1'
_cell_length_a   6.75899000
_cell_length_b   6.75899000
_cell_length_c   25.06920000
_cell_angle_alpha   90.00000000
_cell_angle_beta   90.00000000
_cell_angle_gamma   90.00000000
_symmetry_Int_Tables_number   1
_chemical_formula_structural   Li4Mg4Ag4Sn4CO
_chemical_formula_sum   'Li4 Mg4 Ag4 Sn4 C1 O1'
_cell_volume   1145.25997455
_cell_formula_units_Z   1
loop_
 _symmetry_equiv_pos_site_id
 _symmetry_equiv_pos_as_xyz
  1  'x, y, z'
loop_
 _atom_site_type_symbol
 _atom_site_label
 _atom_site_symmetry_multiplicity
 _atom_site_fract_x
 _atom_site_fract_y
 _atom_site_fract_z
 _atom_site_occupancy
  Li  Li0  1  0.25000000  0.25001000  0.03370000  1
  Li  Li1  1  0.74956000  0.25044000  0.89643000  1
  Li  Li2  1  0.25050500  0.74949500  0.89553000  1
  Li  Li3  1  0.74999000  0.75000000  0.03370000  1
  Mg  Mg4  1  0.24999500  0.75000500  0.03370000  1
  Mg  Mg5  1  0.74906000  0.74921000  0.89409000  1
  Mg  Mg6  1  0.25079000  0.25094000  0.89409000  1
  Mg  Mg7  1  0.74999500  0.25000500  0.03370000  1
  Ag  Ag8  1  0.99999500  0.00000500  0.10110000  1
  Ag  Ag9  1  0.49932000  0.99944000  0.96642000  1
  Ag  Ag10  1  0.00056000  0.50068000  0.96642000  1
  Ag  Ag11  1  0.49999500  0.50000500  0.10110000  1
  Sn  Sn12  1  0.50000000  0.00001000  0.10110000  1
  Sn  Sn13  1  0.99956500  0.00043500  0.95700000  1
  Sn  Sn14  1  0.50080500  0.49919500  0.95754000  1
  Sn  Sn15  1  0.99999000  0.50000000  0.10110000  1
  C  C16  1  0.25142000  0.74858000  0.81356000  1
  O  O17  1  0.25139500  0.74860500  0.76777000  1
