# generated using pymatgen
data_Li24Pb8C
_symmetry_space_group_name_H-M   Pm
_cell_length_a   6.73051000
_cell_length_b   9.51837000
_cell_length_c   27.13880000
_cell_angle_alpha   90.00000000
_cell_angle_beta   90.00000000
_cell_angle_gamma   90.00000000
_symmetry_Int_Tables_number   6
_chemical_formula_structural   Li24Pb8C
_chemical_formula_sum   'Li24 Pb8 C1'
_cell_volume   1738.60609230
_cell_formula_units_Z   1
loop_
 _symmetry_equiv_pos_site_id
 _symmetry_equiv_pos_as_xyz
  1  'x, y, z'
  2  'x, -y, z'
loop_
 _atom_site_type_symbol
 _atom_site_label
 _atom_site_symmetry_multiplicity
 _atom_site_fract_x
 _atom_site_fract_y
 _atom_site_fract_z
 _atom_site_occupancy
  Li  Li0  2  0.25000000  0.25001000  0.95616000  1.0
  Li  Li1  2  0.31642000  0.21627000  0.12726000  1.0
  Li  Li2  2  0.50000000  0.25001000  0.86848000  1.0
  Li  Li3  2  0.50021000  0.25852000  0.03906000  1.0
  Li  Li4  2  0.75000000  0.24999000  0.95616000  1.0
  Li  Li5  2  0.75857000  0.27559000  0.13335000  1.0
  Li  Li6  1  0.00000000  0.00000000  0.95616000  1.0
  Li  Li7  1  0.00000000  0.50000000  0.95616000  1.0
  Li  Li8  1  0.05136000  0.50000000  0.12590000  1.0
  Li  Li9  1  0.06752000  0.00000000  0.11998000  1.0
  Li  Li10  1  0.25000000  0.00000000  0.86848000  1.0
  Li  Li11  1  0.25000000  0.50000000  0.86848000  1.0
  Li  Li12  1  0.25586000  0.50000000  0.04100000  1.0
  Li  Li13  1  0.26519000  0.00000000  0.04132000  1.0
  Li  Li14  1  0.68546000  0.00000000  0.05905000  1.0
  Li  Li15  1  0.74842000  0.50000000  0.04705000  1.0
  Li  Li16  1  0.75000000  0.00000000  0.86848000  1.0
  Li  Li17  1  0.75000000  0.50000000  0.86848000  1.0
  Pb  Pb18  2  0.00000000  0.25001000  0.86848000  1.0
  Pb  Pb19  2  0.99741000  0.24393000  0.04666000  1.0
  Pb  Pb20  1  0.48763000  0.50000000  0.13438000  1.0
  Pb  Pb21  1  0.50000000  0.00000000  0.95616000  1.0
  Pb  Pb22  1  0.50000000  0.50000000  0.95616000  1.0
  Pb  Pb23  1  0.61465000  0.00000000  0.16840000  1.0
  C  C24  1  0.39187000  0.00000000  0.10917000  1.0
