# generated using pymatgen
data_Mg8Au8C
_symmetry_space_group_name_H-M   'P 1'
_cell_length_a   6.67495000
_cell_length_b   6.67495000
_cell_length_c   25.00620000
_cell_angle_alpha   90.00000000
_cell_angle_beta   90.00000000
_cell_angle_gamma   90.00000000
_symmetry_Int_Tables_number   1
_chemical_formula_structural   Mg8Au8C
_chemical_formula_sum   'Mg8 Au8 C1'
_cell_volume   1114.15017830
_cell_formula_units_Z   1
loop_
 _symmetry_equiv_pos_site_id
 _symmetry_equiv_pos_as_xyz
  1  'x, y, z'
loop_
 _atom_site_type_symbol
 _atom_site_label
 _atom_site_symmetry_multiplicity
 _atom_site_fract_x
 _atom_site_fract_y
 _atom_site_fract_z
 _atom_site_occupancy
  Mg  Mg0  1  0.25000000  0.25000000  0.99267000  1.0
  Mg  Mg1  1  0.25000000  0.25000000  0.12614000  1.0
  Mg  Mg2  1  0.25000000  0.75000000  0.99267000  1.0
  Mg  Mg3  1  0.25000000  0.75000000  0.12614000  1.0
  Mg  Mg4  1  0.75000000  0.25000000  0.99267000  1.0
  Mg  Mg5  1  0.75000000  0.25000000  0.12614000  1.0
  Mg  Mg6  1  0.75000000  0.75000000  0.99267000  1.0
  Mg  Mg7  1  0.75000000  0.75000000  0.12614000  1.0
  Au  Au8  1  0.00000000  0.00000000  0.92594000  1.0
  Au  Au9  1  0.00000000  0.00000000  0.05940000  1.0
  Au  Au10  1  0.00000000  0.50000000  0.92594000  1.0
  Au  Au11  1  0.00000000  0.50000000  0.05940000  1.0
  Au  Au12  1  0.50000000  0.00000000  0.92594000  1.0
  Au  Au13  1  0.50000000  0.00000000  0.05940000  1.0
  Au  Au14  1  0.50000000  0.50000000  0.92594000  1.0
  Au  Au15  1  0.50000000  0.50000000  0.05940000  1.0
  C  C16  1  0.00000000  0.00000000  0.15813000  1.0
