# generated using pymatgen
data_Ti4Al4Fe8C
_symmetry_space_group_name_H-M   Cmm2
_cell_length_a   8.25739500
_cell_length_b   8.25739500
_cell_length_c   24.37910000
_cell_angle_alpha   90.00000000
_cell_angle_beta   90.00000000
_cell_angle_gamma   90.00000000
_symmetry_Int_Tables_number   35
_chemical_formula_structural   Ti4Al4Fe8C
_chemical_formula_sum   'Ti8 Al8 Fe16 C2'
_cell_volume   1662.27850410
_cell_formula_units_Z   2
loop_
 _symmetry_equiv_pos_site_id
 _symmetry_equiv_pos_as_xyz
  1  'x, y, z'
  2  '-x, -y, z'
  3  '-x, y, z'
  4  'x, -y, z'
  5  'x+1/2, y+1/2, z'
  6  '-x+1/2, -y+1/2, z'
  7  '-x+1/2, y+1/2, z'
  8  'x+1/2, -y+1/2, z'
loop_
 _atom_site_type_symbol
 _atom_site_label
 _atom_site_symmetry_multiplicity
 _atom_site_fract_x
 _atom_site_fract_y
 _atom_site_fract_z
 _atom_site_occupancy
  Ti  Ti0  4  0.00000000  0.25000000  0.08981000  1.0
  Ti  Ti1  4  0.25000000  0.00000000  0.97006000  1.0
  Al  Al2  4  0.00000000  0.25000000  0.97006000  1.0
  Al  Al3  4  0.25000000  0.00000000  0.08981000  1.0
  Fe  Fe4  4  0.25000000  0.25000000  0.02994000  1.0
  Fe  Fe5  4  0.25000000  0.25000000  0.91019000  1.0
  Fe  Fe6  2  0.00000000  0.00000000  0.02994000  1.0
  Fe  Fe7  2  0.00000000  0.00000000  0.91019000  1.0
  Fe  Fe8  2  0.00000000  0.50000000  0.02994000  1.0
  Fe  Fe9  2  0.00000000  0.50000000  0.91019000  1.0
  C  C10  2  0.00000000  0.50000000  0.12263000  1.0
