# generated using pymatgen
data_Li8Ge8Pd8Au8C
_symmetry_space_group_name_H-M   Pm
_cell_length_a   6.30991000
_cell_length_b   8.92356000
_cell_length_c   26.69270000
_cell_angle_alpha   90.00000000
_cell_angle_beta   90.00000000
_cell_angle_gamma   90.00000000
_symmetry_Int_Tables_number   6
_chemical_formula_structural   Li8Ge8Pd8Au8C
_chemical_formula_sum   'Li8 Ge8 Pd8 Au8 C1'
_cell_volume   1502.98213472
_cell_formula_units_Z   1
loop_
 _symmetry_equiv_pos_site_id
 _symmetry_equiv_pos_as_xyz
  1  'x, y, z'
  2  'x, -y, z'
loop_
 _atom_site_type_symbol
 _atom_site_label
 _atom_site_symmetry_multiplicity
 _atom_site_fract_x
 _atom_site_fract_y
 _atom_site_fract_z
 _atom_site_occupancy
  Li  Li0  2  0.74712000  0.25477000  0.03979000  1.0
  Li  Li1  2  0.75000000  0.25000000  0.87463000  1.0
  Li  Li2  1  0.24489000  0.50000000  0.13629000  1.0
  Li  Li3  1  0.25000000  0.00000000  0.95821000  1.0
  Li  Li4  1  0.25000000  0.50000000  0.95821000  1.0
  Li  Li5  1  0.26827000  0.00000000  0.14681000  1.0
  Ge  Ge6  2  0.25000000  0.25000000  0.87463000  1.0
  Ge  Ge7  2  0.25515000  0.25113000  0.04169000  1.0
  Ge  Ge8  1  0.66552000  0.00000000  0.13831000  1.0
  Ge  Ge9  1  0.75000000  0.00000000  0.95821000  1.0
  Ge  Ge10  1  0.75000000  0.50000000  0.95821000  1.0
  Ge  Ge11  1  0.79152000  0.50000000  0.13885000  1.0
  Pd  Pd12  2  0.00000000  0.25000000  0.95821000  1.0
  Pd  Pd13  2  0.00153000  0.23829000  0.11704000  1.0
  Pd  Pd14  1  0.49570000  0.00000000  0.04393000  1.0
  Pd  Pd15  1  0.49874000  0.50000000  0.04446000  1.0
  Pd  Pd16  1  0.50000000  0.00000000  0.87463000  1.0
  Pd  Pd17  1  0.50000000  0.50000000  0.87463000  1.0
  Au  Au18  2  0.50000000  0.25000000  0.95821000  1.0
  Au  Au19  2  0.52359000  0.27239000  0.12346000  1.0
  Au  Au20  1  0.00000000  0.00000000  0.87463000  1.0
  Au  Au21  1  0.00000000  0.50000000  0.87463000  1.0
  Au  Au22  1  0.97460000  0.00000000  0.04170000  1.0
  Au  Au23  1  0.99844000  0.50000000  0.04919000  1.0
  C  C24  1  0.96116000  0.00000000  0.12705000  1.0
