# generated using pymatgen
data_Li8Zn8Ge8Pd8C
_symmetry_space_group_name_H-M   Pm
_cell_length_a   6.18512000
_cell_length_b   8.74708000
_cell_length_c   26.56030000
_cell_angle_alpha   90.00000000
_cell_angle_beta   90.00000000
_cell_angle_gamma   90.00000000
_symmetry_Int_Tables_number   6
_chemical_formula_structural   Li8Zn8Ge8Pd8C
_chemical_formula_sum   'Li8 Zn8 Ge8 Pd8 C1'
_cell_volume   1436.95843030
_cell_formula_units_Z   1
loop_
 _symmetry_equiv_pos_site_id
 _symmetry_equiv_pos_as_xyz
  1  'x, y, z'
  2  'x, -y, z'
loop_
 _atom_site_type_symbol
 _atom_site_label
 _atom_site_symmetry_multiplicity
 _atom_site_fract_x
 _atom_site_fract_y
 _atom_site_fract_z
 _atom_site_occupancy
  Li  Li0  2  0.25000000  0.25000000  0.87650000  1.0
  Li  Li1  2  0.25257000  0.24472000  0.04430000  1.0
  Li  Li2  1  0.73355000  0.00000000  0.16392000  1.0
  Li  Li3  1  0.75000000  0.00000000  0.95883000  1.0
  Li  Li4  1  0.75000000  0.50000000  0.95883000  1.0
  Li  Li5  1  0.77071000  0.50000000  0.13587000  1.0
  Zn  Zn6  2  0.00000000  0.25000000  0.95883000  1.0
  Zn  Zn7  2  0.00446000  0.23657000  0.12954000  1.0
  Zn  Zn8  1  0.49991000  0.50000000  0.04473000  1.0
  Zn  Zn9  1  0.50000000  0.00000000  0.87650000  1.0
  Zn  Zn10  1  0.50000000  0.50000000  0.87650000  1.0
  Zn  Zn11  1  0.51314000  0.00000000  0.04225000  1.0
  Ge  Ge12  2  0.50000000  0.25000000  0.95883000  1.0
  Ge  Ge13  2  0.51045000  0.26009000  0.13087000  1.0
  Ge  Ge14  1  0.00000000  0.00000000  0.87650000  1.0
  Ge  Ge15  1  0.00000000  0.50000000  0.87650000  1.0
  Ge  Ge16  1  0.95678000  0.00000000  0.04362000  1.0
  Ge  Ge17  1  0.99897000  0.50000000  0.04188000  1.0
  Pd  Pd18  2  0.74727000  0.26025000  0.03985000  1.0
  Pd  Pd19  2  0.75000000  0.25000000  0.87650000  1.0
  Pd  Pd20  1  0.23617000  0.50000000  0.12073000  1.0
  Pd  Pd21  1  0.25000000  0.00000000  0.95883000  1.0
  Pd  Pd22  1  0.25000000  0.50000000  0.95883000  1.0
  Pd  Pd23  1  0.33232000  0.00000000  0.12902000  1.0
  C  C24  1  0.00610000  0.00000000  0.11749000  1.0
