data_image0
_chemical_formula_structural       Mg8Zn8Ag16C
_chemical_formula_sum              "Mg8 Zn8 Ag16 C1"
_cell_length_a       6.56971
_cell_length_b       9.29097
_cell_length_c       26.9682
_cell_angle_alpha    90
_cell_angle_beta     90
_cell_angle_gamma    90

_space_group_name_H-M_alt    "P 1"
_space_group_IT_number       1

loop_
  _space_group_symop_operation_xyz
  'x, y, z'

loop_
  _atom_site_type_symbol
  _atom_site_label
  _atom_site_symmetry_multiplicity
  _atom_site_fract_x
  _atom_site_fract_y
  _atom_site_fract_z
  _atom_site_occupancy
  Mg  Mg1       1.0  0.00000  0.00000  0.87081  1.0000
  Mg  Mg2       1.0  0.50000  0.25000  0.95694  1.0000
  Mg  Mg3       1.0  0.50000  0.75000  0.95694  1.0000
  Mg  Mg4       1.0  0.00000  0.50000  0.87081  1.0000
  Mg  Mg5       1.0  0.00000  0.50000  0.04234  1.0000
  Mg  Mg6       1.0  0.50000  0.73014  0.13517  1.0000
  Mg  Mg7       1.0  0.50000  0.26986  0.13517  1.0000
  Mg  Mg8       1.0  1.00000  1.00000  0.04714  1.0000
  Zn  Zn1       1.0  0.00000  0.75000  0.95694  1.0000
  Zn  Zn2       1.0  0.50000  0.00000  0.87081  1.0000
  Zn  Zn3       1.0  0.00000  0.25000  0.95694  1.0000
  Zn  Zn4       1.0  0.50000  0.50000  0.87081  1.0000
  Zn  Zn5       1.0  1.00000  0.22544  0.13552  1.0000
  Zn  Zn6       1.0  0.50000  0.50000  0.04626  1.0000
  Zn  Zn7       1.0  0.00000  0.77456  0.13552  1.0000
  Zn  Zn8       1.0  0.50000  1.00000  0.03706  1.0000
  Ag  Ag1       1.0  0.25000  0.00000  0.95694  1.0000
  Ag  Ag2       1.0  0.75000  0.50000  0.95694  1.0000
  Ag  Ag3       1.0  0.75000  0.00000  0.95694  1.0000
  Ag  Ag4       1.0  0.25000  0.50000  0.95694  1.0000
  Ag  Ag5       1.0  0.75000  0.75000  0.87081  1.0000
  Ag  Ag6       1.0  0.25000  0.25000  0.87081  1.0000
  Ag  Ag7       1.0  0.25000  0.75000  0.87081  1.0000
  Ag  Ag8       1.0  0.75000  0.25000  0.87081  1.0000
  Ag  Ag9       1.0  0.21961  0.50000  0.13276  1.0000
  Ag  Ag10      1.0  0.69482  1.00000  0.12547  1.0000
  Ag  Ag11      1.0  0.78039  0.50000  0.13276  1.0000
  Ag  Ag12      1.0  0.30518  1.00000  0.12547  1.0000
  Ag  Ag13      1.0  0.74661  0.25381  0.04377  1.0000
  Ag  Ag14      1.0  0.25339  0.74619  0.04377  1.0000
  Ag  Ag15      1.0  0.25339  0.25381  0.04377  1.0000
  Ag  Ag16      1.0  0.74661  0.74619  0.04377  1.0000
  C   C1        1.0  0.00000  0.00000  0.13811  1.0000
