# generated using pymatgen
data_Mg8Zn8Ag16C
_symmetry_space_group_name_H-M   'P 1'
_cell_length_a   6.56971000
_cell_length_b   9.29097000
_cell_length_c   26.96820000
_cell_angle_alpha   90.00000000
_cell_angle_beta   90.00000000
_cell_angle_gamma   90.00000000
_symmetry_Int_Tables_number   1
_chemical_formula_structural   Mg8Zn8Ag16C
_chemical_formula_sum   'Mg8 Zn8 Ag16 C1'
_cell_volume   1646.11138049
_cell_formula_units_Z   1
loop_
 _symmetry_equiv_pos_site_id
 _symmetry_equiv_pos_as_xyz
  1  'x, y, z'
loop_
 _atom_site_type_symbol
 _atom_site_label
 _atom_site_symmetry_multiplicity
 _atom_site_fract_x
 _atom_site_fract_y
 _atom_site_fract_z
 _atom_site_occupancy
  Mg  Mg0  1  0.00000000  0.00000000  0.87081000  1.0
  Mg  Mg1  1  0.50000000  0.25000000  0.95694000  1.0
  Mg  Mg2  1  0.50000000  0.75000000  0.95694000  1.0
  Mg  Mg3  1  0.00000000  0.50000000  0.87081000  1.0
  Mg  Mg4  1  0.00000000  0.50000000  0.04234000  1.0
  Mg  Mg5  1  0.50000000  0.73014000  0.13517000  1.0
  Mg  Mg6  1  0.50000000  0.26986000  0.13517000  1.0
  Mg  Mg7  1  0.00000000  0.00000000  0.04714000  1.0
  Zn  Zn8  1  0.00000000  0.75000000  0.95694000  1.0
  Zn  Zn9  1  0.50000000  0.00000000  0.87081000  1.0
  Zn  Zn10  1  0.00000000  0.25000000  0.95694000  1.0
  Zn  Zn11  1  0.50000000  0.50000000  0.87081000  1.0
  Zn  Zn12  1  0.00000000  0.22544000  0.13552000  1.0
  Zn  Zn13  1  0.50000000  0.50000000  0.04626000  1.0
  Zn  Zn14  1  0.00000000  0.77456000  0.13552000  1.0
  Zn  Zn15  1  0.50000000  0.00000000  0.03706000  1.0
  Ag  Ag16  1  0.25000000  0.00000000  0.95694000  1.0
  Ag  Ag17  1  0.75000000  0.50000000  0.95694000  1.0
  Ag  Ag18  1  0.75000000  0.00000000  0.95694000  1.0
  Ag  Ag19  1  0.25000000  0.50000000  0.95694000  1.0
  Ag  Ag20  1  0.75000000  0.75000000  0.87081000  1.0
  Ag  Ag21  1  0.25000000  0.25000000  0.87081000  1.0
  Ag  Ag22  1  0.25000000  0.75000000  0.87081000  1.0
  Ag  Ag23  1  0.75000000  0.25000000  0.87081000  1.0
  Ag  Ag24  1  0.21961000  0.50000000  0.13276000  1.0
  Ag  Ag25  1  0.69482000  0.00000000  0.12547000  1.0
  Ag  Ag26  1  0.78039000  0.50000000  0.13276000  1.0
  Ag  Ag27  1  0.30518000  0.00000000  0.12547000  1.0
  Ag  Ag28  1  0.74661000  0.25381000  0.04377000  1.0
  Ag  Ag29  1  0.25339000  0.74619000  0.04377000  1.0
  Ag  Ag30  1  0.25339000  0.25381000  0.04377000  1.0
  Ag  Ag31  1  0.74661000  0.74619000  0.04377000  1.0
  C  C32  1  0.00000000  0.00000000  0.13811000  1.0
