# generated using pymatgen
data_LiAlNiPd
_symmetry_space_group_name_H-M   'P 1'
_cell_length_a   5.91240000
_cell_length_b   4.18070000
_cell_length_c   26.27110000
_cell_angle_alpha   90.00000000
_cell_angle_beta   90.00000000
_cell_angle_gamma   90.00000000
_symmetry_Int_Tables_number   1
_chemical_formula_structural   LiAlNiPd
_chemical_formula_sum   'Li4 Al4 Ni4 Pd4'
_cell_volume   649.36827953
_cell_formula_units_Z   4
loop_
 _symmetry_equiv_pos_site_id
 _symmetry_equiv_pos_as_xyz
  1  'x, y, z'
loop_
 _atom_site_type_symbol
 _atom_site_label
 _atom_site_symmetry_multiplicity
 _atom_site_fract_x
 _atom_site_fract_y
 _atom_site_fract_z
 _atom_site_occupancy
  Li  Li0  1  0.00000000  0.50000000  0.96022000  1.0
  Li  Li1  1  0.50000000  0.00000000  0.88065000  1.0
  Li  Li2  1  0.99247000  0.50000000  0.13475000  1.0
  Li  Li3  1  0.49863500  0.00000000  0.03743500  1.0
  Al  Al4  1  0.00000000  0.00000000  0.88065000  1.0
  Al  Al5  1  0.50000000  0.50000000  0.96022000  1.0
  Al  Al6  1  0.00200000  0.00000000  0.03939000  1.0
  Al  Al7  1  0.50398000  0.50000000  0.11869000  1.0
  Ni  Ni8  1  0.75000000  0.00000000  0.96022000  1.0
  Ni  Ni9  1  0.25000000  0.50000000  0.88065000  1.0
  Ni  Ni10  1  0.73254000  0.00000000  0.11234000  1.0
  Ni  Ni11  1  0.24545000  0.50000000  0.04030500  1.0
  Pd  Pd12  1  0.25000000  0.00000000  0.96022000  1.0
  Pd  Pd13  1  0.75000000  0.50000000  0.88065000  1.0
  Pd  Pd14  1  0.25965000  0.00000000  0.11591000  1.0
  Pd  Pd15  1  0.75679000  0.50000000  0.03973000  1.0
