# generated using pymatgen
data_Sc8Ga24C
_symmetry_space_group_name_H-M   'P 1'
_cell_length_a   8.31483000
_cell_length_b   8.31483000
_cell_length_c   26.23610000
_cell_angle_alpha   90.00000000
_cell_angle_beta   90.00000000
_cell_angle_gamma   90.00000000
_symmetry_Int_Tables_number   1
_chemical_formula_structural   Sc8Ga24C
_chemical_formula_sum   'Sc8 Ga24 C1'
_cell_volume   1813.86944970
_cell_formula_units_Z   1
loop_
 _symmetry_equiv_pos_site_id
 _symmetry_equiv_pos_as_xyz
  1  'x, y, z'
loop_
 _atom_site_type_symbol
 _atom_site_label
 _atom_site_symmetry_multiplicity
 _atom_site_fract_x
 _atom_site_fract_y
 _atom_site_fract_z
 _atom_site_occupancy
  Sc  Sc0  1  0.00000000  0.00000000  0.88115000  1.0
  Sc  Sc1  1  0.00000000  0.00000000  0.03962000  1.0
  Sc  Sc2  1  0.00000000  0.50000000  0.88115000  1.0
  Sc  Sc3  1  0.00000000  0.50000000  0.03962000  1.0
  Sc  Sc4  1  0.50000000  0.00000000  0.88115000  1.0
  Sc  Sc5  1  0.50000000  0.00000000  0.03962000  1.0
  Sc  Sc6  1  0.50000000  0.50000000  0.88115000  1.0
  Sc  Sc7  1  0.50000000  0.50000000  0.03962000  1.0
  Ga  Ga8  1  0.00000000  0.25000000  0.96038000  1.0
  Ga  Ga9  1  0.25000000  0.00000000  0.96038000  1.0
  Ga  Ga10  1  0.25000000  0.25000000  0.88115000  1.0
  Ga  Ga11  1  0.00000000  0.25000000  0.11885000  1.0
  Ga  Ga12  1  0.25000000  0.00000000  0.11885000  1.0
  Ga  Ga13  1  0.25000000  0.25000000  0.03962000  1.0
  Ga  Ga14  1  0.00000000  0.75000000  0.96038000  1.0
  Ga  Ga15  1  0.25000000  0.50000000  0.96038000  1.0
  Ga  Ga16  1  0.25000000  0.75000000  0.88115000  1.0
  Ga  Ga17  1  0.00000000  0.75000000  0.11885000  1.0
  Ga  Ga18  1  0.25000000  0.50000000  0.11885000  1.0
  Ga  Ga19  1  0.25000000  0.75000000  0.03962000  1.0
  Ga  Ga20  1  0.50000000  0.25000000  0.96038000  1.0
  Ga  Ga21  1  0.75000000  0.00000000  0.96038000  1.0
  Ga  Ga22  1  0.75000000  0.25000000  0.88115000  1.0
  Ga  Ga23  1  0.50000000  0.25000000  0.11885000  1.0
  Ga  Ga24  1  0.75000000  0.00000000  0.11885000  1.0
  Ga  Ga25  1  0.75000000  0.25000000  0.03962000  1.0
  Ga  Ga26  1  0.50000000  0.75000000  0.96038000  1.0
  Ga  Ga27  1  0.75000000  0.50000000  0.96038000  1.0
  Ga  Ga28  1  0.75000000  0.75000000  0.88115000  1.0
  Ga  Ga29  1  0.50000000  0.75000000  0.11885000  1.0
  Ga  Ga30  1  0.75000000  0.50000000  0.11885000  1.0
  Ga  Ga31  1  0.75000000  0.75000000  0.03962000  1.0
  C  C32  1  0.00000000  0.00000000  0.14934000  1.0
