# generated using pymatgen
data_Sc4Co8Sn4C
_symmetry_space_group_name_H-M   'P 1'
_cell_length_a   6.22913000
_cell_length_b   6.22913000
_cell_length_c   24.67180000
_cell_angle_alpha   90.00000000
_cell_angle_beta   90.00000000
_cell_angle_gamma   90.00000000
_symmetry_Int_Tables_number   1
_chemical_formula_structural   Sc4Co8Sn4C
_chemical_formula_sum   'Sc4 Co8 Sn4 C1'
_cell_volume   957.31667765
_cell_formula_units_Z   1
loop_
 _symmetry_equiv_pos_site_id
 _symmetry_equiv_pos_as_xyz
  1  'x, y, z'
loop_
 _atom_site_type_symbol
 _atom_site_label
 _atom_site_symmetry_multiplicity
 _atom_site_fract_x
 _atom_site_fract_y
 _atom_site_fract_z
 _atom_site_occupancy
  Sc  Sc0  1  0.00000000  0.00000000  0.90532000  1.0
  Sc  Sc1  1  0.50000000  0.50000000  0.90532000  1.0
  Sc  Sc2  1  0.50000000  0.00000000  0.03156000  1.0
  Sc  Sc3  1  0.00000000  0.50000000  0.03156000  1.0
  Co  Co4  1  0.25000000  0.25000000  0.96844000  1.0
  Co  Co5  1  0.75000000  0.75000000  0.09468000  1.0
  Co  Co6  1  0.75000000  0.25000000  0.96844000  1.0
  Co  Co7  1  0.25000000  0.75000000  0.09468000  1.0
  Co  Co8  1  0.75000000  0.75000000  0.96844000  1.0
  Co  Co9  1  0.25000000  0.25000000  0.09468000  1.0
  Co  Co10  1  0.25000000  0.75000000  0.96844000  1.0
  Co  Co11  1  0.75000000  0.25000000  0.09468000  1.0
  Sn  Sn12  1  0.00000000  0.00000000  0.03156000  1.0
  Sn  Sn13  1  0.50000000  0.00000000  0.90532000  1.0
  Sn  Sn14  1  0.00000000  0.50000000  0.90532000  1.0
  Sn  Sn15  1  0.50000000  0.50000000  0.03156000  1.0
  C  C16  1  0.00000000  0.00000000  0.12711000  1.0
