# generated using pymatgen
data_LiMnAlPd
_symmetry_space_group_name_H-M   'P 1'
_cell_length_a   6.10222000
_cell_length_b   6.10222000
_cell_length_c   24.57670000
_cell_angle_alpha   90.00000000
_cell_angle_beta   90.00000000
_cell_angle_gamma   90.00000000
_symmetry_Int_Tables_number   1
_chemical_formula_structural   LiMnAlPd
_chemical_formula_sum   'Li4 Mn4 Al4 Pd4'
_cell_volume   915.16476347
_cell_formula_units_Z   4
loop_
 _symmetry_equiv_pos_site_id
 _symmetry_equiv_pos_as_xyz
  1  'x, y, z'
loop_
 _atom_site_type_symbol
 _atom_site_label
 _atom_site_symmetry_multiplicity
 _atom_site_fract_x
 _atom_site_fract_y
 _atom_site_fract_z
 _atom_site_occupancy
  Li  Li0  1  0.50000000  1.00000000  0.90689000  1
  Li  Li1  1  0.00000000  0.00000000  0.03177000  1
  Li  Li2  1  0.50000000  0.50000000  0.03154000  1
  Li  Li3  1  1.00000000  0.50000000  0.90689000  1
  Mn  Mn4  1  0.75000000  0.25000000  0.96896000  1
  Mn  Mn5  1  0.24993500  0.24993500  0.10033000  1
  Mn  Mn6  1  0.75006500  0.75006500  0.10033000  1
  Mn  Mn7  1  0.25000000  0.75000000  0.96896000  1
  Al  Al8  1  0.00000000  0.00000000  0.90689000  1
  Al  Al9  1  0.50000000  1.00000000  0.03157000  1
  Al  Al10  1  1.00000000  0.50000000  0.03157000  1
  Al  Al11  1  0.50000000  0.50000000  0.90689000  1
  Pd  Pd12  1  0.75000000  0.75000000  0.96896000  1
  Pd  Pd13  1  0.25018000  0.74982000  0.08768000  1
  Pd  Pd14  1  0.74982000  0.25018000  0.08768000  1
  Pd  Pd15  1  0.25000000  0.25000000  0.96896000  1
