# generated using pymatgen
data_LiMnAlPd
_symmetry_space_group_name_H-M   Cmm2
_cell_length_a   8.62984228
_cell_length_b   8.62984228
_cell_length_c   24.57670000
_cell_angle_alpha   90.00000000
_cell_angle_beta   90.00000000
_cell_angle_gamma   90.00000000
_symmetry_Int_Tables_number   35
_chemical_formula_structural   LiMnAlPd
_chemical_formula_sum   'Li8 Mn8 Al8 Pd8'
_cell_volume   1830.32952693
_cell_formula_units_Z   8
loop_
 _symmetry_equiv_pos_site_id
 _symmetry_equiv_pos_as_xyz
  1  'x, y, z'
  2  '-x, -y, z'
  3  '-x, y, z'
  4  'x, -y, z'
  5  'x+1/2, y+1/2, z'
  6  '-x+1/2, -y+1/2, z'
  7  '-x+1/2, y+1/2, z'
  8  'x+1/2, -y+1/2, z'
loop_
 _atom_site_type_symbol
 _atom_site_label
 _atom_site_symmetry_multiplicity
 _atom_site_fract_x
 _atom_site_fract_y
 _atom_site_fract_z
 _atom_site_occupancy
  Li  Li0  4  0.25000000  0.25000000  0.90689000  1.0
  Li  Li1  2  0.00000000  0.00000000  0.03177000  1.0
  Li  Li2  2  0.00000000  0.50000000  0.03154000  1.0
  Mn  Mn3  4  0.00000000  0.25000000  0.96896000  1.0
  Mn  Mn4  4  0.24993500  0.00000000  0.10033000  1.0
  Al  Al5  4  0.25000000  0.25000000  0.03157000  1.0
  Al  Al6  2  0.00000000  0.00000000  0.90689000  1.0
  Al  Al7  2  0.00000000  0.50000000  0.90689000  1.0
  Pd  Pd8  4  0.00000000  0.25018000  0.08768000  1.0
  Pd  Pd9  4  0.25000000  0.00000000  0.96896000  1.0
