# generated using pymatgen
data_Sc12In4CO
_symmetry_space_group_name_H-M   'P 1'
_cell_length_a   6.40504000
_cell_length_b   9.05810000
_cell_length_c   24.80380000
_cell_angle_alpha   90.00000000
_cell_angle_beta   90.00000000
_cell_angle_gamma   90.00000000
_symmetry_Int_Tables_number   1
_chemical_formula_structural   Sc12In4CO
_chemical_formula_sum   'Sc12 In4 C1 O1'
_cell_volume   1439.05428851
_cell_formula_units_Z   1
loop_
 _symmetry_equiv_pos_site_id
 _symmetry_equiv_pos_as_xyz
  1  'x, y, z'
loop_
 _atom_site_type_symbol
 _atom_site_label
 _atom_site_symmetry_multiplicity
 _atom_site_fract_x
 _atom_site_fract_y
 _atom_site_fract_z
 _atom_site_occupancy
  Sc  Sc0  1  0.50000000  0.50000000  0.90399000  1.0
  Sc  Sc1  1  0.74711000  0.75246000  0.96783000  1.0
  Sc  Sc2  1  0.25289000  0.75246000  0.96783000  1.0
  Sc  Sc3  1  0.00000000  0.50000000  0.03228000  1.0
  Sc  Sc4  1  0.24999000  0.75001000  0.09684000  1.0
  Sc  Sc5  1  0.75001000  0.75001000  0.09684000  1.0
  Sc  Sc6  1  0.50000000  0.00000000  0.90085000  1.0
  Sc  Sc7  1  0.74711000  0.24754000  0.96783000  1.0
  Sc  Sc8  1  0.25289000  0.24754000  0.96783000  1.0
  Sc  Sc9  1  0.00000000  0.00000000  0.03228000  1.0
  Sc  Sc10  1  0.24999000  0.24999000  0.09684000  1.0
  Sc  Sc11  1  0.75001000  0.24999000  0.09684000  1.0
  In  In12  1  0.00000000  0.50000000  0.90927000  1.0
  In  In13  1  0.50000000  0.50000000  0.03228000  1.0
  In  In14  1  0.00000000  0.00000000  0.91002000  1.0
  In  In15  1  0.50000000  0.00000000  0.03228000  1.0
  C  C16  1  0.50000000  0.50000000  0.81003000  1.0
  O  O17  1  0.50000000  0.50000000  0.76374000  1.0
