data_image0
_chemical_formula_structural       Li8Ga8Ni8Pd8CO
_chemical_formula_sum              "Li8 Ga8 Ni8 Pd8 C1 O1"
_cell_length_a       5.9322
_cell_length_b       8.3894
_cell_length_c       26.292
_cell_angle_alpha    90
_cell_angle_beta     90
_cell_angle_gamma    90

_space_group_name_H-M_alt    "P 1"
_space_group_IT_number       1

loop_
  _space_group_symop_operation_xyz
  'x, y, z'

loop_
  _atom_site_type_symbol
  _atom_site_label
  _atom_site_symmetry_multiplicity
  _atom_site_fract_x
  _atom_site_fract_y
  _atom_site_fract_z
  _atom_site_occupancy
  Li  Li1       1.0  0.00000  0.25000  0.96011  1.0000
  Li  Li2       1.0  0.00000  0.75000  0.96011  1.0000
  Li  Li3       1.0  0.50000  0.50000  0.88034  1.0000
  Li  Li4       1.0  0.50000  0.00000  0.88034  1.0000
  Li  Li5       1.0  0.01273  0.74328  0.13433  1.0000
  Li  Li6       1.0  0.01277  0.25671  0.13434  1.0000
  Li  Li7       1.0  0.51483  0.00009  0.03959  1.0000
  Li  Li8       1.0  0.50273  0.49993  0.03582  1.0000
  Ga  Ga1       1.0  0.00000  0.00000  0.88034  1.0000
  Ga  Ga2       1.0  0.00000  0.50000  0.88034  1.0000
  Ga  Ga3       1.0  0.50000  0.75000  0.96011  1.0000
  Ga  Ga4       1.0  0.50000  0.25000  0.96011  1.0000
  Ga  Ga5       1.0  0.00179  0.49987  0.03926  1.0000
  Ga  Ga6       1.0  0.99425  0.00007  0.04025  1.0000
  Ga  Ga7       1.0  0.49211  0.24871  0.12045  1.0000
  Ga  Ga8       1.0  0.49217  0.75130  0.12045  1.0000
  Ni  Ni1       1.0  0.25000  0.00000  0.96011  1.0000
  Ni  Ni2       1.0  0.25000  0.50000  0.96011  1.0000
  Ni  Ni3       1.0  0.75000  0.25000  0.88034  1.0000
  Ni  Ni4       1.0  0.75000  0.75000  0.88034  1.0000
  Ni  Ni5       1.0  0.27407  0.49992  0.11085  1.0000
  Ni  Ni6       1.0  0.26969  0.00010  0.11149  1.0000
  Ni  Ni7       1.0  0.75714  0.75263  0.04154  1.0000
  Ni  Ni8       1.0  0.75738  0.24735  0.04165  1.0000
  Pd  Pd1       1.0  0.75000  0.00000  0.96011  1.0000
  Pd  Pd2       1.0  0.75000  0.50000  0.96011  1.0000
  Pd  Pd3       1.0  0.25000  0.25000  0.88034  1.0000
  Pd  Pd4       1.0  0.25000  0.75000  0.88034  1.0000
  Pd  Pd5       1.0  0.73569  0.49996  0.11431  1.0000
  Pd  Pd6       1.0  0.75761  0.00004  0.12610  1.0000
  Pd  Pd7       1.0  0.24562  0.75119  0.03948  1.0000
  Pd  Pd8       1.0  0.24557  0.24882  0.03951  1.0000
  C   C1        1.0  0.84563  0.99996  0.19775  1.0000
  O   O1        1.0  0.87809  0.00002  0.24116  1.0000
