# generated using pymatgen
data_Li8Ga8Ni8Pd8CO
_symmetry_space_group_name_H-M   'P 1'
_cell_length_a   5.93220000
_cell_length_b   8.38940000
_cell_length_c   26.29200000
_cell_angle_alpha   90.00000000
_cell_angle_beta   90.00000000
_cell_angle_gamma   90.00000000
_symmetry_Int_Tables_number   1
_chemical_formula_structural   Li8Ga8Ni8Pd8CO
_chemical_formula_sum   'Li8 Ga8 Ni8 Pd8 C1 O1'
_cell_volume   1308.48970449
_cell_formula_units_Z   1
loop_
 _symmetry_equiv_pos_site_id
 _symmetry_equiv_pos_as_xyz
  1  'x, y, z'
loop_
 _atom_site_type_symbol
 _atom_site_label
 _atom_site_symmetry_multiplicity
 _atom_site_fract_x
 _atom_site_fract_y
 _atom_site_fract_z
 _atom_site_occupancy
  Li  Li0  1  0.00000000  0.25000000  0.96011000  1.0
  Li  Li1  1  0.00000000  0.75000000  0.96011000  1.0
  Li  Li2  1  0.50000000  0.50000000  0.88034000  1.0
  Li  Li3  1  0.50000000  0.00000000  0.88034000  1.0
  Li  Li4  1  0.01273000  0.74328000  0.13433000  1.0
  Li  Li5  1  0.01277000  0.25671000  0.13434000  1.0
  Li  Li6  1  0.51483000  0.00009000  0.03959000  1.0
  Li  Li7  1  0.50273000  0.49993000  0.03582000  1.0
  Ga  Ga8  1  0.00000000  0.00000000  0.88034000  1.0
  Ga  Ga9  1  0.00000000  0.50000000  0.88034000  1.0
  Ga  Ga10  1  0.50000000  0.75000000  0.96011000  1.0
  Ga  Ga11  1  0.50000000  0.25000000  0.96011000  1.0
  Ga  Ga12  1  0.00179000  0.49987000  0.03926000  1.0
  Ga  Ga13  1  0.99425000  0.00007000  0.04025000  1.0
  Ga  Ga14  1  0.49211000  0.24871000  0.12045000  1.0
  Ga  Ga15  1  0.49217000  0.75130000  0.12045000  1.0
  Ni  Ni16  1  0.25000000  0.00000000  0.96011000  1.0
  Ni  Ni17  1  0.25000000  0.50000000  0.96011000  1.0
  Ni  Ni18  1  0.75000000  0.25000000  0.88034000  1.0
  Ni  Ni19  1  0.75000000  0.75000000  0.88034000  1.0
  Ni  Ni20  1  0.27407000  0.49992000  0.11085000  1.0
  Ni  Ni21  1  0.26969000  0.00010000  0.11149000  1.0
  Ni  Ni22  1  0.75714000  0.75263000  0.04154000  1.0
  Ni  Ni23  1  0.75738000  0.24735000  0.04165000  1.0
  Pd  Pd24  1  0.75000000  0.00000000  0.96011000  1.0
  Pd  Pd25  1  0.75000000  0.50000000  0.96011000  1.0
  Pd  Pd26  1  0.25000000  0.25000000  0.88034000  1.0
  Pd  Pd27  1  0.25000000  0.75000000  0.88034000  1.0
  Pd  Pd28  1  0.73569000  0.49996000  0.11431000  1.0
  Pd  Pd29  1  0.75761000  0.00004000  0.12610000  1.0
  Pd  Pd30  1  0.24562000  0.75119000  0.03948000  1.0
  Pd  Pd31  1  0.24557000  0.24882000  0.03951000  1.0
  C  C32  1  0.84563000  0.99996000  0.19775000  1.0
  O  O33  1  0.87809000  0.00002000  0.24116000  1.0
