# generated using pymatgen
data_Li8Y8In8Ge8CO
_symmetry_space_group_name_H-M   Pm
_cell_length_a   8.49364000
_cell_length_b   8.57642000
_cell_length_c   26.98910000
_cell_angle_alpha   90.00000000
_cell_angle_beta   90.00000000
_cell_angle_gamma   90.00000000
_symmetry_Int_Tables_number   6
_chemical_formula_structural   Li8Y8In8Ge8CO
_chemical_formula_sum   'Li8 Y8 In8 Ge8 C1 O1'
_cell_volume   1966.02163640
_cell_formula_units_Z   1
loop_
 _symmetry_equiv_pos_site_id
 _symmetry_equiv_pos_as_xyz
  1  'x, y, z'
  2  'x, -y, z'
loop_
 _atom_site_type_symbol
 _atom_site_label
 _atom_site_symmetry_multiplicity
 _atom_site_fract_x
 _atom_site_fract_y
 _atom_site_fract_z
 _atom_site_occupancy
  Li  Li0  2  0.00000000  0.24999000  0.95684000  1.0
  Li  Li1  2  0.00043000  0.25222000  0.13953000  1.0
  Li  Li2  2  0.49960000  0.25220000  0.13953000  1.0
  Li  Li3  2  0.50000000  0.24999000  0.95684000  1.0
  Y  Y4  2  0.25000000  0.24999000  0.87052000  1.0
  Y  Y5  2  0.25001000  0.24574000  0.04615000  1.0
  Y  Y6  2  0.75000000  0.24999000  0.87052000  1.0
  Y  Y7  2  0.75001000  0.24543000  0.04631000  1.0
  In  In8  1  0.25000000  0.00000000  0.95684000  1.0
  In  In9  1  0.25000000  0.50000000  0.95684000  1.0
  In  In10  1  0.25001000  0.00000000  0.14434000  1.0
  In  In11  1  0.25004000  0.50000000  0.13366000  1.0
  In  In12  1  0.75000000  0.00000000  0.95684000  1.0
  In  In13  1  0.75000000  0.50000000  0.13425000  1.0
  In  In14  1  0.75000000  0.50000000  0.95684000  1.0
  In  In15  1  0.75001000  0.00000000  0.14241000  1.0
  Ge  Ge16  1  0.00000000  0.00000000  0.87052000  1.0
  Ge  Ge17  1  0.00000000  0.50000000  0.87052000  1.0
  Ge  Ge18  1  0.00082000  0.00000000  0.06168000  1.0
  Ge  Ge19  1  0.49920000  0.00000000  0.06168000  1.0
  Ge  Ge20  1  0.50000000  0.00000000  0.87052000  1.0
  Ge  Ge21  1  0.50000000  0.50000000  0.87052000  1.0
  Ge  Ge22  1  0.50011000  0.50000000  0.05119000  1.0
  Ge  Ge23  1  0.99991000  0.50000000  0.05119000  1.0
  C  C24  1  0.24943000  0.50000000  0.28962000  1.0
  O  O25  1  0.25017000  0.50000000  0.33165000  1.0
