# generated using pymatgen
data_Ca8Ni8CO
_symmetry_space_group_name_H-M   'P 1'
_cell_length_a   6.91175000
_cell_length_b   6.91175000
_cell_length_c   25.18380000
_cell_angle_alpha   90.00000000
_cell_angle_beta   90.00000000
_cell_angle_gamma   90.00000000
_symmetry_Int_Tables_number   1
_chemical_formula_structural   Ca8Ni8CO
_chemical_formula_sum   'Ca8 Ni8 C1 O1'
_cell_volume   1203.08774811
_cell_formula_units_Z   1
loop_
 _symmetry_equiv_pos_site_id
 _symmetry_equiv_pos_as_xyz
  1  'x, y, z'
loop_
 _atom_site_type_symbol
 _atom_site_label
 _atom_site_symmetry_multiplicity
 _atom_site_fract_x
 _atom_site_fract_y
 _atom_site_fract_z
 _atom_site_occupancy
  Ca  Ca0  1  0.75001000  0.00000000  0.10939000  1.0
  Ca  Ca1  1  0.74784000  0.99784000  0.97767000  1.0
  Ca  Ca2  1  0.24999000  0.00000000  0.10939000  1.0
  Ca  Ca3  1  0.25216000  0.99784000  0.97767000  1.0
  Ca  Ca4  1  0.75001000  0.50000000  0.10939000  1.0
  Ca  Ca5  1  0.74785000  0.50221000  0.97752000  1.0
  Ca  Ca6  1  0.24999000  0.50000000  0.10939000  1.0
  Ca  Ca7  1  0.25215000  0.50221000  0.97752000  1.0
  Ni  Ni8  1  0.00000000  0.25000000  0.04077000  1.0
  Ni  Ni9  1  0.00000000  0.24965000  0.93147000  1.0
  Ni  Ni10  1  0.50000000  0.25000000  0.04077000  1.0
  Ni  Ni11  1  0.50000000  0.24963000  0.93199000  1.0
  Ni  Ni12  1  0.00000000  0.75000000  0.04077000  1.0
  Ni  Ni13  1  0.00000000  0.75044000  0.93193000  1.0
  Ni  Ni14  1  0.50000000  0.75000000  0.04077000  1.0
  Ni  Ni15  1  0.50000000  0.75042000  0.93084000  1.0
  C  C16  1  0.00000000  0.24988000  0.86196000  1.0
  O  O17  1  0.00000000  0.25005000  0.81608000  1.0
