# generated using pymatgen
data_Ca8Ni8CO
_symmetry_space_group_name_H-M   Pm
_cell_length_a   6.91175000
_cell_length_b   6.91175000
_cell_length_c   25.18380000
_cell_angle_alpha   90.00000000
_cell_angle_beta   90.00000000
_cell_angle_gamma   90.00000000
_symmetry_Int_Tables_number   6
_chemical_formula_structural   Ca8Ni8CO
_chemical_formula_sum   'Ca8 Ni8 C1 O1'
_cell_volume   1203.08774811
_cell_formula_units_Z   1
loop_
 _symmetry_equiv_pos_site_id
 _symmetry_equiv_pos_as_xyz
  1  'x, y, z'
  2  'x, -y, z'
loop_
 _atom_site_type_symbol
 _atom_site_label
 _atom_site_symmetry_multiplicity
 _atom_site_fract_x
 _atom_site_fract_y
 _atom_site_fract_z
 _atom_site_occupancy
  Ca  Ca0  2  0.00000000  0.24999000  0.89061000  1.0
  Ca  Ca1  2  0.50000000  0.24999000  0.89061000  1.0
  Ca  Ca2  2  0.50221000  0.25215000  0.02248000  1.0
  Ca  Ca3  2  0.99784000  0.25216000  0.02233000  1.0
  Ni  Ni4  1  0.24963000  0.50000000  0.06801000  1.0
  Ni  Ni5  1  0.24965000  0.00000000  0.06853000  1.0
  Ni  Ni6  1  0.25000000  0.00000000  0.95923000  1.0
  Ni  Ni7  1  0.25000000  0.50000000  0.95923000  1.0
  Ni  Ni8  1  0.75000000  0.00000000  0.95923000  1.0
  Ni  Ni9  1  0.75000000  0.50000000  0.95923000  1.0
  Ni  Ni10  1  0.75042000  0.50000000  0.06916000  1.0
  Ni  Ni11  1  0.75044000  0.00000000  0.06807000  1.0
  C  C12  1  0.24988000  0.00000000  0.13804000  1.0
  O  O13  1  0.25005000  0.00000000  0.18392000  1.0
