# generated using pymatgen
data_Li16Al8Ag8CO
_symmetry_space_group_name_H-M   'P 1'
_cell_length_a   6.34834000
_cell_length_b   8.97791000
_cell_length_c   26.73340000
_cell_angle_alpha   90.00000000
_cell_angle_beta   90.00000000
_cell_angle_gamma   90.00000000
_symmetry_Int_Tables_number   1
_chemical_formula_structural   Li16Al8Ag8CO
_chemical_formula_sum   'Li16 Al8 Ag8 C1 O1'
_cell_volume   1523.66545918
_cell_formula_units_Z   1
loop_
 _symmetry_equiv_pos_site_id
 _symmetry_equiv_pos_as_xyz
  1  'x, y, z'
loop_
 _atom_site_type_symbol
 _atom_site_label
 _atom_site_symmetry_multiplicity
 _atom_site_fract_x
 _atom_site_fract_y
 _atom_site_fract_z
 _atom_site_occupancy
  Li  Li0  1  0.00000000  0.75000000  0.95802000  1.0
  Li  Li1  1  0.50000000  0.00000000  0.87406000  1.0
  Li  Li2  1  0.00000000  0.25000000  0.95802000  1.0
  Li  Li3  1  0.50000000  0.50000000  0.87406000  1.0
  Li  Li4  1  0.25000000  0.00000000  0.95802000  1.0
  Li  Li5  1  0.25000000  0.50000000  0.95802000  1.0
  Li  Li6  1  0.75000000  0.75000000  0.87406000  1.0
  Li  Li7  1  0.75000000  0.25000000  0.87406000  1.0
  Li  Li8  1  0.97843000  0.25022000  0.12574000  1.0
  Li  Li9  1  0.49128000  0.50001000  0.03739000  1.0
  Li  Li10  1  0.97843000  0.74981000  0.12575000  1.0
  Li  Li11  1  0.47714000  0.99999000  0.03719000  1.0
  Li  Li12  1  0.25909000  0.50000000  0.12739000  1.0
  Li  Li13  1  0.24684000  0.99998000  0.13445000  1.0
  Li  Li14  1  0.75223000  0.24912000  0.03990000  1.0
  Li  Li15  1  0.75230000  0.75090000  0.03990000  1.0
  Al  Al16  1  0.00000000  0.00000000  0.87406000  1.0
  Al  Al17  1  0.50000000  0.25000000  0.95802000  1.0
  Al  Al18  1  0.50000000  0.75000000  0.95802000  1.0
  Al  Al19  1  0.00000000  0.50000000  0.87406000  1.0
  Al  Al20  1  0.99624000  0.50001000  0.04220000  1.0
  Al  Al21  1  0.50142000  0.75091000  0.12418000  1.0
  Al  Al22  1  0.50133000  0.24918000  0.12418000  1.0
  Al  Al23  1  0.00570000  0.99998000  0.04100000  1.0
  Ag  Ag24  1  0.25000000  0.25000000  0.87406000  1.0
  Ag  Ag25  1  0.25000000  0.75000000  0.87406000  1.0
  Ag  Ag26  1  0.75000000  0.50000000  0.95802000  1.0
  Ag  Ag27  1  0.75000000  0.00000000  0.95802000  1.0
  Ag  Ag28  1  0.24383000  0.74760000  0.04263000  1.0
  Ag  Ag29  1  0.24387000  0.25245000  0.04264000  1.0
  Ag  Ag30  1  0.71638000  0.99995000  0.11515000  1.0
  Ag  Ag31  1  0.71915000  0.49998000  0.11842000  1.0
  C  C32  1  0.04058000  0.00001000  0.19637000  1.0
  O  O33  1  0.94680000  0.99995000  0.23313000  1.0
