data_image0
_chemical_formula_structural       Ni24Sb8
_chemical_formula_sum              "Ni24 Sb8"
_cell_length_a       5.9782
_cell_length_b       8.45446
_cell_length_c       26.3408
_cell_angle_alpha    90
_cell_angle_beta     90
_cell_angle_gamma    90

_space_group_name_H-M_alt    "P 1"
_space_group_IT_number       1

loop_
  _space_group_symop_operation_xyz
  'x, y, z'

loop_
  _atom_site_type_symbol
  _atom_site_label
  _atom_site_symmetry_multiplicity
  _atom_site_fract_x
  _atom_site_fract_y
  _atom_site_fract_z
  _atom_site_occupancy
  Ni  Ni1       1.0  0.25000  0.00000  0.95988  1.0000
  Ni  Ni2       1.0  0.75000  0.50000  0.95988  1.0000
  Ni  Ni3       1.0  0.75000  0.00000  0.95988  1.0000
  Ni  Ni4       1.0  0.25000  0.50000  0.95988  1.0000
  Ni  Ni5       1.0  0.75000  0.75000  0.87964  1.0000
  Ni  Ni6       1.0  0.25000  0.25000  0.87964  1.0000
  Ni  Ni7       1.0  0.25000  0.75000  0.87964  1.0000
  Ni  Ni8       1.0  0.75000  0.25000  0.87964  1.0000
  Ni  Ni9       1.0  0.00000  0.75000  0.95988  1.0000
  Ni  Ni10      1.0  0.50000  0.00000  0.87964  1.0000
  Ni  Ni11      1.0  0.00000  0.25000  0.95988  1.0000
  Ni  Ni12      1.0  0.50000  0.50000  0.87964  1.0000
  Ni  Ni13      1.0  0.24818  0.50001  0.11664  1.0000
  Ni  Ni14      1.0  0.75198  0.99996  0.11665  1.0000
  Ni  Ni15      1.0  0.75184  0.50000  0.11667  1.0000
  Ni  Ni16      1.0  0.24806  0.99998  0.11665  1.0000
  Ni  Ni17      1.0  0.73711  0.25004  0.04103  1.0000
  Ni  Ni18      1.0  0.26304  0.75004  0.04102  1.0000
  Ni  Ni19      1.0  0.26291  0.25000  0.04104  1.0000
  Ni  Ni20      1.0  0.73697  0.75001  0.04105  1.0000
  Ni  Ni21      1.0  0.00001  0.24997  0.11547  1.0000
  Ni  Ni22      1.0  0.50000  0.49994  0.03901  1.0000
  Ni  Ni23      1.0  0.99994  0.75009  0.11550  1.0000
  Ni  Ni24      1.0  0.50003  0.00019  0.03902  1.0000
  Sb  Sb1       1.0  0.00000  0.00000  0.87964  1.0000
  Sb  Sb2       1.0  0.50000  0.25000  0.95988  1.0000
  Sb  Sb3       1.0  0.50000  0.75000  0.95988  1.0000
  Sb  Sb4       1.0  0.00000  0.50000  0.87964  1.0000
  Sb  Sb5       1.0  0.99999  0.50001  0.03874  1.0000
  Sb  Sb6       1.0  0.50000  0.75001  0.12700  1.0000
  Sb  Sb7       1.0  0.50001  0.24999  0.12699  1.0000
  Sb  Sb8       1.0  0.00000  0.99998  0.03872  1.0000
