# generated using pymatgen
data_Li4Y4Ag4Sn4CO
_symmetry_space_group_name_H-M   Cm
_cell_length_a   10.05808485
_cell_length_b   10.05808485
_cell_length_c   25.33410000
_cell_angle_alpha   90.00000000
_cell_angle_beta   90.00000000
_cell_angle_gamma   90.00000000
_symmetry_Int_Tables_number   8
_chemical_formula_structural   Li4Y4Ag4Sn4CO
_chemical_formula_sum   'Li8 Y8 Ag8 Sn8 C2 O2'
_cell_volume   2562.92601912
_cell_formula_units_Z   2
loop_
 _symmetry_equiv_pos_site_id
 _symmetry_equiv_pos_as_xyz
  1  'x, y, z'
  2  'x, -y, z'
  3  'x+1/2, y+1/2, z'
  4  'x+1/2, -y+1/2, z'
loop_
 _atom_site_type_symbol
 _atom_site_label
 _atom_site_symmetry_multiplicity
 _atom_site_fract_x
 _atom_site_fract_y
 _atom_site_fract_z
 _atom_site_occupancy
  Li  Li0  4  0.00000000  0.25000000  0.96491000  1.0
  Li  Li1  2  0.25000000  0.00000000  0.09565000  1.0
  Li  Li2  2  0.25000000  0.50000000  0.09517000  1.0
  Y  Y3  4  0.49998000  0.25000000  0.10381000  1.0
  Y  Y4  2  0.25000000  0.00000000  0.96491000  1.0
  Y  Y5  2  0.25000000  0.50000000  0.96491000  1.0
  Ag  Ag6  4  0.25000000  0.25000000  0.89472000  1.0
  Ag  Ag7  2  0.00042500  0.00000000  0.03629000  1.0
  Ag  Ag8  2  0.49958000  0.00000000  0.03629000  1.0
  Sn  Sn9  4  0.24996000  0.24993000  0.03968000  1.0
  Sn  Sn10  2  0.00000000  0.00000000  0.89472000  1.0
  Sn  Sn11  2  0.00000000  0.50000000  0.89472000  1.0
  C  C12  2  0.25001000  0.00000000  0.17497000  1.0
  O  O13  2  0.25001000  0.00000000  0.22075000  1.0
