# generated using pymatgen
data_Li4Sc4Al4In4C
_symmetry_space_group_name_H-M   Pm
_cell_length_a   6.04255000
_cell_length_b   8.49254000
_cell_length_c   24.52830000
_cell_angle_alpha   90.00000000
_cell_angle_beta   90.00000000
_cell_angle_gamma   90.00000000
_symmetry_Int_Tables_number   6
_chemical_formula_structural   Li4Sc4Al4In4C
_chemical_formula_sum   'Li4 Sc4 Al4 In4 C1'
_cell_volume   1258.70890035
_cell_formula_units_Z   1
loop_
 _symmetry_equiv_pos_site_id
 _symmetry_equiv_pos_as_xyz
  1  'x, y, z'
  2  'x, -y, z'
loop_
 _atom_site_type_symbol
 _atom_site_label
 _atom_site_symmetry_multiplicity
 _atom_site_fract_x
 _atom_site_fract_y
 _atom_site_fract_z
 _atom_site_occupancy
  Li  Li0  1  0.22019000  0.00000000  0.90769000  1.0
  Li  Li1  1  0.22019000  0.50000000  0.90769000  1.0
  Li  Li2  1  0.75252000  0.00000000  0.03793000  1.0
  Li  Li3  1  0.75495000  0.50000000  0.03757000  1.0
  Sc  Sc4  1  0.23044000  0.50000000  0.03331000  1.0
  Sc  Sc5  1  0.26053000  0.00000000  0.03196000  1.0
  Sc  Sc6  1  0.72019000  0.00000000  0.90769000  1.0
  Sc  Sc7  1  0.72019000  0.50000000  0.90769000  1.0
  Al  Al8  2  0.00076000  0.22585000  0.09582000  1.0
  Al  Al9  2  0.48013000  0.25001000  0.96923000  1.0
  In  In10  2  0.51502000  0.27742000  0.09713000  1.0
  In  In11  2  0.98013000  0.25001000  0.96923000  1.0
  C  C12  1  0.01809000  0.00000000  0.09273000  1.0
