data_image0
_chemical_formula_structural       Y8Ga8Cu8Pd8CO
_chemical_formula_sum              "Y8 Ga8 Cu8 Pd8 C1 O1"
_cell_length_a       6.59466
_cell_length_b       9.32626
_cell_length_c       26.9947
_cell_angle_alpha    90
_cell_angle_beta     90
_cell_angle_gamma    90

_space_group_name_H-M_alt    "P 1"
_space_group_IT_number       1

loop_
  _space_group_symop_operation_xyz
  'x, y, z'

loop_
  _atom_site_type_symbol
  _atom_site_label
  _atom_site_symmetry_multiplicity
  _atom_site_fract_x
  _atom_site_fract_y
  _atom_site_fract_z
  _atom_site_occupancy
  Y   Y1        1.0  0.75000  0.00000  0.95681  1.0000
  Y   Y2        1.0  0.75000  0.50000  0.95681  1.0000
  Y   Y3        1.0  0.25000  0.25000  0.87044  1.0000
  Y   Y4        1.0  0.25000  0.75000  0.87044  1.0000
  Y   Y5        1.0  0.67999  0.50000  0.13755  1.0000
  Y   Y6        1.0  0.68575  0.00000  0.13509  1.0000
  Y   Y7        1.0  0.24638  0.74696  0.04677  1.0000
  Y   Y8        1.0  0.24637  0.25303  0.04676  1.0000
  Ga  Ga1       1.0  0.25000  0.00000  0.95681  1.0000
  Ga  Ga2       1.0  0.25000  0.50000  0.95681  1.0000
  Ga  Ga3       1.0  0.75000  0.25000  0.87044  1.0000
  Ga  Ga4       1.0  0.75000  0.75000  0.87044  1.0000
  Ga  Ga5       1.0  0.20649  0.50000  0.12897  1.0000
  Ga  Ga6       1.0  0.20405  1.00000  0.12765  1.0000
  Ga  Ga7       1.0  0.74199  0.75258  0.04308  1.0000
  Ga  Ga8       1.0  0.74199  0.24742  0.04308  1.0000
  Cu  Cu1       1.0  0.00000  0.00000  0.87044  1.0000
  Cu  Cu2       1.0  0.00000  0.50000  0.87044  1.0000
  Cu  Cu3       1.0  0.50000  0.75000  0.95681  1.0000
  Cu  Cu4       1.0  0.50000  0.25000  0.95681  1.0000
  Cu  Cu5       1.0  0.95235  0.50000  0.05529  1.0000
  Cu  Cu6       1.0  0.96339  1.00000  0.05173  1.0000
  Cu  Cu7       1.0  0.37843  0.24939  0.14882  1.0000
  Cu  Cu8       1.0  0.37842  0.75061  0.14882  1.0000
  Pd  Pd1       1.0  0.00000  0.25000  0.95681  1.0000
  Pd  Pd2       1.0  0.00000  0.75000  0.95681  1.0000
  Pd  Pd3       1.0  0.50000  0.50000  0.87044  1.0000
  Pd  Pd4       1.0  0.50000  0.00000  0.87044  1.0000
  Pd  Pd5       1.0  0.97005  0.74547  0.12541  1.0000
  Pd  Pd6       1.0  0.97004  0.25452  0.12541  1.0000
  Pd  Pd7       1.0  0.49673  1.00000  0.04005  1.0000
  Pd  Pd8       1.0  0.51271  0.50000  0.04296  1.0000
  C   C1        1.0  0.52382  1.00000  0.21751  1.0000
  O   O1        1.0  0.45405  1.00000  0.25674  1.0000
