# generated using pymatgen
data_Y8Ga8Cu8Pd8CO
_symmetry_space_group_name_H-M   'P 1'
_cell_length_a   9.32626000
_cell_length_b   6.59466000
_cell_length_c   26.99470000
_cell_angle_alpha   90.00000000
_cell_angle_beta   90.00000000
_cell_angle_gamma   90.00000000
_symmetry_Int_Tables_number   1
_chemical_formula_structural   Y8Ga8Cu8Pd8CO
_chemical_formula_sum   'Y8 Ga8 Cu8 Pd8 C1 O1'
_cell_volume   1660.26890321
_cell_formula_units_Z   1
loop_
 _symmetry_equiv_pos_site_id
 _symmetry_equiv_pos_as_xyz
  1  'x, y, z'
loop_
 _atom_site_type_symbol
 _atom_site_label
 _atom_site_symmetry_multiplicity
 _atom_site_fract_x
 _atom_site_fract_y
 _atom_site_fract_z
 _atom_site_occupancy
  Y  Y0  1  0.00000000  0.75000000  0.04319000  1.0
  Y  Y1  1  0.50000000  0.75000000  0.04319000  1.0
  Y  Y2  1  0.25000000  0.25000000  0.12956000  1.0
  Y  Y3  1  0.75000000  0.25000000  0.12956000  1.0
  Y  Y4  1  0.50000000  0.67999000  0.86245000  1.0
  Y  Y5  1  0.00000000  0.68575000  0.86491000  1.0
  Y  Y6  1  0.74696000  0.24638000  0.95323000  1.0
  Y  Y7  1  0.25304000  0.24638000  0.95323000  1.0
  Ga  Ga8  1  0.00000000  0.25000000  0.04319000  1.0
  Ga  Ga9  1  0.50000000  0.25000000  0.04319000  1.0
  Ga  Ga10  1  0.25000000  0.75000000  0.12956000  1.0
  Ga  Ga11  1  0.75000000  0.75000000  0.12956000  1.0
  Ga  Ga12  1  0.50000000  0.20649000  0.87103000  1.0
  Ga  Ga13  1  0.00000000  0.20405000  0.87235000  1.0
  Ga  Ga14  1  0.75258000  0.74199000  0.95692000  1.0
  Ga  Ga15  1  0.24742000  0.74199000  0.95692000  1.0
  Cu  Cu16  1  0.00000000  0.00000000  0.12956000  1.0
  Cu  Cu17  1  0.50000000  0.00000000  0.12956000  1.0
  Cu  Cu18  1  0.75000000  0.50000000  0.04319000  1.0
  Cu  Cu19  1  0.25000000  0.50000000  0.04319000  1.0
  Cu  Cu20  1  0.50000000  0.95235000  0.94471000  1.0
  Cu  Cu21  1  0.00000000  0.96339000  0.94827000  1.0
  Cu  Cu22  1  0.24939000  0.37843000  0.85118000  1.0
  Cu  Cu23  1  0.75061000  0.37843000  0.85118000  1.0
  Pd  Pd24  1  0.25000000  0.00000000  0.04319000  1.0
  Pd  Pd25  1  0.75000000  0.00000000  0.04319000  1.0
  Pd  Pd26  1  0.50000000  0.50000000  0.12956000  1.0
  Pd  Pd27  1  0.00000000  0.50000000  0.12956000  1.0
  Pd  Pd28  1  0.74547000  0.97005000  0.87459000  1.0
  Pd  Pd29  1  0.25453000  0.97005000  0.87459000  1.0
  Pd  Pd30  1  0.00000000  0.49673000  0.95995000  1.0
  Pd  Pd31  1  0.50000000  0.51271000  0.95704000  1.0
  C  C32  1  0.00000000  0.52382000  0.78249000  1.0
  O  O33  1  0.00000000  0.45405000  0.74326000  1.0
