# generated using pymatgen
data_Y8Ga8Cu8Pd8CO
_symmetry_space_group_name_H-M   Pm
_cell_length_a   6.59466000
_cell_length_b   9.32626000
_cell_length_c   26.99470000
_cell_angle_alpha   90.00000000
_cell_angle_beta   90.00000000
_cell_angle_gamma   90.00000000
_symmetry_Int_Tables_number   6
_chemical_formula_structural   Y8Ga8Cu8Pd8CO
_chemical_formula_sum   'Y8 Ga8 Cu8 Pd8 C1 O1'
_cell_volume   1660.26890321
_cell_formula_units_Z   1
loop_
 _symmetry_equiv_pos_site_id
 _symmetry_equiv_pos_as_xyz
  1  'x, y, z'
  2  'x, -y, z'
loop_
 _atom_site_type_symbol
 _atom_site_label
 _atom_site_symmetry_multiplicity
 _atom_site_fract_x
 _atom_site_fract_y
 _atom_site_fract_z
 _atom_site_occupancy
  Y  Y0  2  0.24638000  0.25304000  0.04677000  1.0
  Y  Y1  2  0.25000000  0.25000000  0.87044000  1.0
  Y  Y2  1  0.67999000  0.50000000  0.13755000  1.0
  Y  Y3  1  0.68575000  0.00000000  0.13509000  1.0
  Y  Y4  1  0.75000000  0.00000000  0.95681000  1.0
  Y  Y5  1  0.75000000  0.50000000  0.95681000  1.0
  Ga  Ga6  2  0.74199000  0.24742000  0.04308000  1.0
  Ga  Ga7  2  0.75000000  0.25000000  0.87044000  1.0
  Ga  Ga8  1  0.20405000  0.00000000  0.12765000  1.0
  Ga  Ga9  1  0.20649000  0.50000000  0.12897000  1.0
  Ga  Ga10  1  0.25000000  0.00000000  0.95681000  1.0
  Ga  Ga11  1  0.25000000  0.50000000  0.95681000  1.0
  Cu  Cu12  2  0.37843000  0.24939000  0.14882000  1.0
  Cu  Cu13  2  0.50000000  0.25000000  0.95681000  1.0
  Cu  Cu14  1  0.00000000  0.00000000  0.87044000  1.0
  Cu  Cu15  1  0.00000000  0.50000000  0.87044000  1.0
  Cu  Cu16  1  0.95235000  0.50000000  0.05529000  1.0
  Cu  Cu17  1  0.96339000  0.00000000  0.05173000  1.0
  Pd  Pd18  2  0.00000000  0.25000000  0.95681000  1.0
  Pd  Pd19  2  0.97005000  0.25453000  0.12541000  1.0
  Pd  Pd20  1  0.49673000  0.00000000  0.04005000  1.0
  Pd  Pd21  1  0.50000000  0.00000000  0.87044000  1.0
  Pd  Pd22  1  0.50000000  0.50000000  0.87044000  1.0
  Pd  Pd23  1  0.51271000  0.50000000  0.04296000  1.0
  C  C24  1  0.52382000  0.00000000  0.21751000  1.0
  O  O25  1  0.45405000  0.00000000  0.25674000  1.0
