# generated using pymatgen
data_Sc4In12C
_symmetry_space_group_name_H-M   'P 1'
_cell_length_a   6.46086000
_cell_length_b   9.13703000
_cell_length_c   24.84560000
_cell_angle_alpha   90.00000000
_cell_angle_beta   90.00000000
_cell_angle_gamma   90.00000000
_symmetry_Int_Tables_number   1
_chemical_formula_structural   Sc4In12C
_chemical_formula_sum   'Sc4 In12 C1'
_cell_volume   1466.71208488
_cell_formula_units_Z   1
loop_
 _symmetry_equiv_pos_site_id
 _symmetry_equiv_pos_as_xyz
  1  'x, y, z'
loop_
 _atom_site_type_symbol
 _atom_site_label
 _atom_site_symmetry_multiplicity
 _atom_site_fract_x
 _atom_site_fract_y
 _atom_site_fract_z
 _atom_site_occupancy
  Sc  Sc0  1  0.00000000  0.00000000  0.09751000  1.0
  Sc  Sc1  1  0.50000000  0.00000000  0.97305000  1.0
  Sc  Sc2  1  0.00000000  0.50000000  0.09751000  1.0
  Sc  Sc3  1  0.50000000  0.50000000  0.95542000  1.0
  In  In4  1  0.50000000  0.00000000  0.09751000  1.0
  In  In5  1  0.74999000  0.25000000  0.03250000  1.0
  In  In6  1  0.25001000  0.25000000  0.03250000  1.0
  In  In7  1  0.00000000  0.00000000  0.97886000  1.0
  In  In8  1  0.24884000  0.21013000  0.89190000  1.0
  In  In9  1  0.75116000  0.21013000  0.89190000  1.0
  In  In10  1  0.50000000  0.50000000  0.09751000  1.0
  In  In11  1  0.74999000  0.75000000  0.03250000  1.0
  In  In12  1  0.25001000  0.75000000  0.03250000  1.0
  In  In13  1  0.00000000  0.50000000  0.95402000  1.0
  In  In14  1  0.24884000  0.78987000  0.89190000  1.0
  In  In15  1  0.75116000  0.78987000  0.89190000  1.0
  C  C16  1  0.00000000  0.00000000  0.88790000  1.0
