# generated using pymatgen
data_Li4Ag4Ge4Pd4CO
_symmetry_space_group_name_H-M   'P 1'
_cell_length_a   6.28256000
_cell_length_b   6.28256000
_cell_length_c   24.71190000
_cell_angle_alpha   90.00000000
_cell_angle_beta   90.00000000
_cell_angle_gamma   90.00000000
_symmetry_Int_Tables_number   1
_chemical_formula_structural   Li4Ag4Ge4Pd4CO
_chemical_formula_sum   'Li4 Ag4 Ge4 Pd4 C1 O1'
_cell_volume   975.39253546
_cell_formula_units_Z   1
loop_
 _symmetry_equiv_pos_site_id
 _symmetry_equiv_pos_as_xyz
  1  'x, y, z'
loop_
 _atom_site_type_symbol
 _atom_site_label
 _atom_site_symmetry_multiplicity
 _atom_site_fract_x
 _atom_site_fract_y
 _atom_site_fract_z
 _atom_site_occupancy
  Li  Li0  1  0.24942000  0.24821000  0.96683000  1.0
  Li  Li1  1  0.25000000  0.75000000  0.09534000  1.0
  Li  Li2  1  0.75000000  0.25000000  0.09534000  1.0
  Li  Li3  1  0.75058000  0.75179000  0.96683000  1.0
  Ag  Ag4  1  0.00000000  0.00000000  0.89792000  1.0
  Ag  Ag5  1  0.00000000  0.50000000  0.03178000  1.0
  Ag  Ag6  1  0.50000000  0.00000000  0.03178000  1.0
  Ag  Ag7  1  0.50000000  0.50000000  0.89820000  1.0
  Ge  Ge8  1  0.74880000  0.24839000  0.96575000  1.0
  Ge  Ge9  1  0.75000000  0.75000000  0.09534000  1.0
  Ge  Ge10  1  0.25000000  0.25000000  0.09534000  1.0
  Ge  Ge11  1  0.25120000  0.75161000  0.96575000  1.0
  Pd  Pd12  1  0.00000000  0.50000000  0.90295000  1.0
  Pd  Pd13  1  0.00000000  0.00000000  0.03178000  1.0
  Pd  Pd14  1  0.50000000  0.50000000  0.03178000  1.0
  Pd  Pd15  1  0.50000000  0.00000000  0.91084000  1.0
  C  C16  1  0.00000000  0.50000000  0.82369000  1.0
  O  O17  1  0.00000000  0.50000000  0.77718000  1.0
