# generated using pymatgen
data_Li4Ag4Ge4Pd4CO
_symmetry_space_group_name_H-M   P2
_cell_length_a   6.28256000
_cell_length_b   24.71190000
_cell_length_c   6.28256000
_cell_angle_alpha   90.00000000
_cell_angle_beta   90.00000000
_cell_angle_gamma   90.00000000
_symmetry_Int_Tables_number   3
_chemical_formula_structural   Li4Ag4Ge4Pd4CO
_chemical_formula_sum   'Li4 Ag4 Ge4 Pd4 C1 O1'
_cell_volume   975.39253546
_cell_formula_units_Z   1
loop_
 _symmetry_equiv_pos_site_id
 _symmetry_equiv_pos_as_xyz
  1  'x, y, z'
  2  '-x, y, -z'
loop_
 _atom_site_type_symbol
 _atom_site_label
 _atom_site_symmetry_multiplicity
 _atom_site_fract_x
 _atom_site_fract_y
 _atom_site_fract_z
 _atom_site_occupancy
  Li  Li0  2  0.24821000  0.03317000  0.24942000  1.0
  Li  Li1  2  0.25000000  0.90466000  0.75000000  1.0
  Ag  Ag2  1  0.00000000  0.10208000  0.00000000  1.0
  Ag  Ag3  1  0.00000000  0.96822000  0.50000000  1.0
  Ag  Ag4  1  0.50000000  0.10180000  0.50000000  1.0
  Ag  Ag5  1  0.50000000  0.96822000  0.00000000  1.0
  Ge  Ge6  2  0.24839000  0.03425000  0.74880000  1.0
  Ge  Ge7  2  0.25000000  0.90466000  0.25000000  1.0
  Pd  Pd8  1  0.00000000  0.08916000  0.50000000  1.0
  Pd  Pd9  1  0.00000000  0.96822000  0.00000000  1.0
  Pd  Pd10  1  0.50000000  0.09705000  0.00000000  1.0
  Pd  Pd11  1  0.50000000  0.96822000  0.50000000  1.0
  C  C12  1  0.50000000  0.17631000  0.00000000  1.0
  O  O13  1  0.50000000  0.22282000  0.00000000  1.0
