data_image0
_chemical_formula_structural       Li8In8Cu8Sn8CO
_chemical_formula_sum              "Li8 In8 Cu8 Sn8 C1 O1"
_cell_length_a       6.73938
_cell_length_b       9.53092
_cell_length_c       27.1482
_cell_angle_alpha    90
_cell_angle_beta     90
_cell_angle_gamma    90

_space_group_name_H-M_alt    "P 1"
_space_group_IT_number       1

loop_
  _space_group_symop_operation_xyz
  'x, y, z'

loop_
  _atom_site_type_symbol
  _atom_site_label
  _atom_site_symmetry_multiplicity
  _atom_site_fract_x
  _atom_site_fract_y
  _atom_site_fract_z
  _atom_site_occupancy
  Li  Li1       1.0  0.00000  0.25000  0.95612  1.0000
  Li  Li2       1.0  0.00000  0.75000  0.95612  1.0000
  Li  Li3       1.0  0.50000  0.50000  0.86835  1.0000
  Li  Li4       1.0  0.50000  0.00000  0.86835  1.0000
  Li  Li5       1.0  0.97940  0.75000  0.15061  1.0000
  Li  Li6       1.0  0.99487  0.25000  0.14464  1.0000
  Li  Li7       1.0  0.49195  0.99626  0.04454  1.0000
  Li  Li8       1.0  0.49196  0.50375  0.04453  1.0000
  In  In1       1.0  0.25000  0.00000  0.95612  1.0000
  In  In2       1.0  0.25000  0.50000  0.95612  1.0000
  In  In3       1.0  0.75000  0.25000  0.86835  1.0000
  In  In4       1.0  0.75000  0.75000  0.86835  1.0000
  In  In5       1.0  0.26040  0.51403  0.14239  1.0000
  In  In6       1.0  0.26040  0.98596  0.14239  1.0000
  In  In7       1.0  0.76291  0.75000  0.04384  1.0000
  In  In8       1.0  0.74979  0.25000  0.04725  1.0000
  Cu  Cu1       1.0  0.00000  0.00000  0.86835  1.0000
  Cu  Cu2       1.0  0.00000  0.50000  0.86835  1.0000
  Cu  Cu3       1.0  0.50000  0.75000  0.95612  1.0000
  Cu  Cu4       1.0  0.50000  0.25000  0.95612  1.0000
  Cu  Cu5       1.0  0.00326  0.49591  0.04255  1.0000
  Cu  Cu6       1.0  0.00326  0.00409  0.04255  1.0000
  Cu  Cu7       1.0  0.50468  0.25000  0.13211  1.0000
  Cu  Cu8       1.0  0.51795  0.75000  0.12201  1.0000
  Sn  Sn1       1.0  0.75000  0.00000  0.95612  1.0000
  Sn  Sn2       1.0  0.75000  0.50000  0.95612  1.0000
  Sn  Sn3       1.0  0.25000  0.25000  0.86835  1.0000
  Sn  Sn4       1.0  0.25000  0.75000  0.86835  1.0000
  Sn  Sn5       1.0  0.74998  0.50435  0.13167  1.0000
  Sn  Sn6       1.0  0.74998  0.99565  0.13167  1.0000
  Sn  Sn7       1.0  0.23525  0.75000  0.04859  1.0000
  Sn  Sn8       1.0  0.24300  0.25000  0.05107  1.0000
  C   C1        1.0  0.48844  0.25000  0.20138  1.0000
  O   O1        1.0  0.49255  0.25000  0.24390  1.0000
