# generated using pymatgen
data_In16Ag16C
_symmetry_space_group_name_H-M   Pm
_cell_length_a   7.14855000
_cell_length_b   10.10960000
_cell_length_c   27.58220000
_cell_angle_alpha   90.00000000
_cell_angle_beta   90.00000000
_cell_angle_gamma   90.00000000
_symmetry_Int_Tables_number   6
_chemical_formula_structural   In16Ag16C
_chemical_formula_sum   'In16 Ag16 C1'
_cell_volume   1993.33748994
_cell_formula_units_Z   1
loop_
 _symmetry_equiv_pos_site_id
 _symmetry_equiv_pos_as_xyz
  1  'x, y, z'
  2  '-x, -y, z'
  3  '-x, y, z'
  4  'x, -y, z'
loop_
 _atom_site_type_symbol
 _atom_site_label
 _atom_site_symmetry_multiplicity
 _atom_site_fract_x
 _atom_site_fract_y
 _atom_site_fract_z
 _atom_site_occupancy
  In  In0  4  0.25000000  0.24997000  0.86255000  1.0
  In  In1  4  0.25389000  0.25313000  0.04372000  1.0
  In  In2  2  0.23643000  0.50000000  0.14689000  1.0
  In  In3  2  0.25000000  0.00000000  0.95418000  1.0
  In  In4  2  0.25000000  0.50000000  0.95418000  1.0
  In  In5  2  0.29024000  0.00000000  0.15350000  1.0
  Ag  Ag6  2  0.00000000  0.24997000  0.95418000  1.0
  Ag  Ag7  2  0.00001000  0.24336000  0.13241000  1.0
  Ag  Ag8  2  0.49999000  0.26406000  0.13263000  1.0
  Ag  Ag9  2  0.50000000  0.24997000  0.95418000  1.0
  Ag  Ag10  1  0.00000000  0.00000000  0.86255000  1.0
  Ag  Ag11  1  0.00000000  0.50000000  0.04819000  1.0
  Ag  Ag12  1  0.00000000  0.50000000  0.86255000  1.0
  Ag  Ag13  1  0.00001000  0.00000000  0.04477000  1.0
  Ag  Ag14  1  0.50000000  0.00000000  0.04827000  1.0
  Ag  Ag15  1  0.50000000  0.00000000  0.86255000  1.0
  Ag  Ag16  1  0.50000000  0.50000000  0.04940000  1.0
  Ag  Ag17  1  0.50000000  0.50000000  0.86255000  1.0
  C  C18  1  0.00000000  0.00000000  0.12735000  1.0
