# generated using pymatgen
data_Y8In8Pd16CO
_symmetry_space_group_name_H-M   Pm
_cell_length_a   6.85111000
_cell_length_b   9.68893000
_cell_length_c   27.26670000
_cell_angle_alpha   90.00000000
_cell_angle_beta   90.00000000
_cell_angle_gamma   90.00000000
_symmetry_Int_Tables_number   6
_chemical_formula_structural   Y8In8Pd16CO
_chemical_formula_sum   'Y8 In8 Pd16 C1 O1'
_cell_volume   1809.96150679
_cell_formula_units_Z   1
loop_
 _symmetry_equiv_pos_site_id
 _symmetry_equiv_pos_as_xyz
  1  'x, y, z'
  2  'x, -y, z'
loop_
 _atom_site_type_symbol
 _atom_site_label
 _atom_site_symmetry_multiplicity
 _atom_site_fract_x
 _atom_site_fract_y
 _atom_site_fract_z
 _atom_site_occupancy
  Y  Y0  2  0.49977000  0.24788000  0.13443000  1.0
  Y  Y1  2  0.50000000  0.25000000  0.95558000  1.0
  Y  Y2  1  0.00000000  0.00000000  0.86675000  1.0
  Y  Y3  1  0.00000000  0.50000000  0.86675000  1.0
  Y  Y4  1  0.00172000  0.50000000  0.04362000  1.0
  Y  Y5  1  0.00271000  0.00000000  0.04457000  1.0
  In  In6  2  0.00000000  0.25000000  0.95558000  1.0
  In  In7  2  0.99747000  0.25235000  0.13413000  1.0
  In  In8  1  0.49888000  0.50000000  0.04637000  1.0
  In  In9  1  0.49962000  0.00000000  0.04705000  1.0
  In  In10  1  0.50000000  0.00000000  0.86675000  1.0
  In  In11  1  0.50000000  0.50000000  0.86675000  1.0
  Pd  Pd12  2  0.25000000  0.25000000  0.86675000  1.0
  Pd  Pd13  2  0.26193000  0.24717000  0.04712000  1.0
  Pd  Pd14  2  0.74177000  0.25062000  0.04624000  1.0
  Pd  Pd15  2  0.75000000  0.25000000  0.86675000  1.0
  Pd  Pd16  1  0.23373000  0.00000000  0.14215000  1.0
  Pd  Pd17  1  0.23643000  0.50000000  0.12841000  1.0
  Pd  Pd18  1  0.25000000  0.00000000  0.95558000  1.0
  Pd  Pd19  1  0.25000000  0.50000000  0.95558000  1.0
  Pd  Pd20  1  0.75000000  0.00000000  0.95558000  1.0
  Pd  Pd21  1  0.75000000  0.50000000  0.95558000  1.0
  Pd  Pd22  1  0.76229000  0.50000000  0.12801000  1.0
  Pd  Pd23  1  0.76900000  0.00000000  0.12763000  1.0
  C  C24  1  0.32269000  0.00000000  0.21038000  1.0
  O  O25  1  0.33598000  0.00000000  0.25274000  1.0
