# generated using pymatgen
data_Y4Sc4Ga4Pd4C
_symmetry_space_group_name_H-M   'P 1'
_cell_length_a   7.06732000
_cell_length_b   6.83834000
_cell_length_c   25.12490000
_cell_angle_alpha   90.00000000
_cell_angle_beta   90.00000000
_cell_angle_gamma   90.00000000
_symmetry_Int_Tables_number   1
_chemical_formula_structural   Y4Sc4Ga4Pd4C
_chemical_formula_sum   'Y4 Sc4 Ga4 Pd4 C1'
_cell_volume   1214.25468548
_cell_formula_units_Z   1
loop_
 _symmetry_equiv_pos_site_id
 _symmetry_equiv_pos_as_xyz
  1  'x, y, z'
loop_
 _atom_site_type_symbol
 _atom_site_label
 _atom_site_symmetry_multiplicity
 _atom_site_fract_x
 _atom_site_fract_y
 _atom_site_fract_z
 _atom_site_occupancy
  Y  Y0  1  0.50000000  0.26007000  0.04297000  1.0
  Y  Y1  1  0.50000000  0.77900000  0.89801000  1.0
  Y  Y2  1  0.00000000  0.26219000  0.03832000  1.0
  Y  Y3  1  0.00000000  0.77900000  0.89801000  1.0
  Sc  Sc4  1  0.50000000  0.77723000  0.03426000  1.0
  Sc  Sc5  1  0.50000000  0.27900000  0.89801000  1.0
  Sc  Sc6  1  0.00000000  0.77610000  0.02923000  1.0
  Sc  Sc7  1  0.00000000  0.27900000  0.89801000  1.0
  Ga  Ga8  1  0.77163000  0.96425000  0.10622000  1.0
  Ga  Ga9  1  0.75000000  0.51933000  0.96600000  1.0
  Ga  Ga10  1  0.22837000  0.96425000  0.10622000  1.0
  Ga  Ga11  1  0.25000000  0.51933000  0.96600000  1.0
  Pd  Pd12  1  0.76532000  0.55611000  0.08651000  1.0
  Pd  Pd13  1  0.75000000  0.01933000  0.96600000  1.0
  Pd  Pd14  1  0.23468000  0.55611000  0.08651000  1.0
  Pd  Pd15  1  0.25000000  0.01933000  0.96600000  1.0
  C  C16  1  0.50000000  0.99213000  0.10032000  1.0
