data_image0
_chemical_formula_structural       Si4Ni12CO
_chemical_formula_sum              "Si4 Ni12 C1 O1"
_cell_length_a       7.08204
_cell_length_b       5.00776
_cell_length_c       23.7558
_cell_angle_alpha    90
_cell_angle_beta     90
_cell_angle_gamma    90

_space_group_name_H-M_alt    "P 1"
_space_group_IT_number       1

loop_
  _space_group_symop_operation_xyz
  'x, y, z'

loop_
  _atom_site_type_symbol
  _atom_site_label
  _atom_site_symmetry_multiplicity
  _atom_site_fract_x
  _atom_site_fract_y
  _atom_site_fract_z
  _atom_site_occupancy
  Si  Si1       1.0  0.00001  0.99999  0.07002  1.0000
  Si  Si2       1.0  0.00000  0.50000  0.97365  1.0000
  Si  Si3       1.0  0.50003  0.00000  0.07060  1.0000
  Si  Si4       1.0  0.50000  0.50000  0.97365  1.0000
  Ni  Ni1       1.0  0.99998  0.50002  0.08646  1.0000
  Ni  Ni2       1.0  0.24667  0.75118  0.02853  1.0000
  Ni  Ni3       1.0  0.24665  0.24883  0.02853  1.0000
  Ni  Ni4       1.0  0.00000  0.00000  0.97365  1.0000
  Ni  Ni5       1.0  0.25000  0.25000  0.92095  1.0000
  Ni  Ni6       1.0  0.25000  0.75000  0.92095  1.0000
  Ni  Ni7       1.0  0.50002  0.50001  0.07526  1.0000
  Ni  Ni8       1.0  0.75339  0.75113  0.02851  1.0000
  Ni  Ni9       1.0  0.75334  0.24876  0.02852  1.0000
  Ni  Ni10      1.0  0.50000  0.00000  0.97365  1.0000
  Ni  Ni11      1.0  0.75000  0.25000  0.92095  1.0000
  Ni  Ni12      1.0  0.75000  0.75000  0.92095  1.0000
  C   C1        1.0  0.00002  0.50000  0.16181  1.0000
  O   O1        1.0  0.00004  0.49997  0.21032  1.0000
