# generated using pymatgen
data_V8Co16Si8CO
_symmetry_space_group_name_H-M   'P 1'
_cell_length_a   5.68381000
_cell_length_b   8.03813000
_cell_length_c   26.02860000
_cell_angle_alpha   90.00000000
_cell_angle_beta   90.00000000
_cell_angle_gamma   90.00000000
_symmetry_Int_Tables_number   1
_chemical_formula_structural   V8Co16Si8CO
_chemical_formula_sum   'V8 Co16 Si8 C1 O1'
_cell_volume   1189.17394958
_cell_formula_units_Z   1
loop_
 _symmetry_equiv_pos_site_id
 _symmetry_equiv_pos_as_xyz
  1  'x, y, z'
loop_
 _atom_site_type_symbol
 _atom_site_label
 _atom_site_symmetry_multiplicity
 _atom_site_fract_x
 _atom_site_fract_y
 _atom_site_fract_z
 _atom_site_occupancy
  V  V0  1  0.00000000  0.75000000  0.88419000  1.0
  V  V1  1  0.50000000  0.00000000  0.96140000  1.0
  V  V2  1  0.50000000  0.50000000  0.96140000  1.0
  V  V3  1  0.00000000  0.25000000  0.88419000  1.0
  V  V4  1  0.00000000  0.25000000  0.03860000  1.0
  V  V5  1  0.50000000  0.50000000  0.11581000  1.0
  V  V6  1  0.50000000  0.00000000  0.11581000  1.0
  V  V7  1  0.00000000  0.75000000  0.03860000  1.0
  Co  Co8  1  0.25000000  0.75000000  0.96140000  1.0
  Co  Co9  1  0.75000000  0.25000000  0.96140000  1.0
  Co  Co10  1  0.75000000  0.75000000  0.96140000  1.0
  Co  Co11  1  0.25000000  0.25000000  0.96140000  1.0
  Co  Co12  1  0.75000000  0.50000000  0.88419000  1.0
  Co  Co13  1  0.25000000  0.00000000  0.88419000  1.0
  Co  Co14  1  0.25000000  0.50000000  0.88419000  1.0
  Co  Co15  1  0.75000000  0.00000000  0.88419000  1.0
  Co  Co16  1  0.25000000  0.25000000  0.11581000  1.0
  Co  Co17  1  0.75000000  0.75000000  0.11581000  1.0
  Co  Co18  1  0.75000000  0.25000000  0.11581000  1.0
  Co  Co19  1  0.25000000  0.75000000  0.11581000  1.0
  Co  Co20  1  0.75000000  0.00000000  0.03860000  1.0
  Co  Co21  1  0.25000000  0.50000000  0.03860000  1.0
  Co  Co22  1  0.25000000  0.00000000  0.03860000  1.0
  Co  Co23  1  0.75000000  0.50000000  0.03860000  1.0
  Si  Si24  1  0.00000000  0.50000000  0.96140000  1.0
  Si  Si25  1  0.50000000  0.75000000  0.88419000  1.0
  Si  Si26  1  0.00000000  0.00000000  0.96140000  1.0
  Si  Si27  1  0.50000000  0.25000000  0.88419000  1.0
  Si  Si28  1  0.00000000  0.00000000  0.11581000  1.0
  Si  Si29  1  0.50000000  0.25000000  0.03860000  1.0
  Si  Si30  1  0.00000000  0.50000000  0.11581000  1.0
  Si  Si31  1  0.50000000  0.75000000  0.03860000  1.0
  C  C32  1  0.50000000  0.00000000  0.18880000  1.0
  O  O33  1  0.50000000  0.00000000  0.23299000  1.0
