# generated using pymatgen
data_Li8Y8Ga8Pd8CO
_symmetry_space_group_name_H-M   'P 1'
_cell_length_a   9.36046000
_cell_length_b   6.61884000
_cell_length_c   27.02030000
_cell_angle_alpha   90.00000000
_cell_angle_beta   90.00000000
_cell_angle_gamma   90.00000000
_symmetry_Int_Tables_number   1
_chemical_formula_structural   Li8Y8Ga8Pd8CO
_chemical_formula_sum   'Li8 Y8 Ga8 Pd8 C1 O1'
_cell_volume   1674.05314515
_cell_formula_units_Z   1
loop_
 _symmetry_equiv_pos_site_id
 _symmetry_equiv_pos_as_xyz
  1  'x, y, z'
loop_
 _atom_site_type_symbol
 _atom_site_label
 _atom_site_symmetry_multiplicity
 _atom_site_fract_x
 _atom_site_fract_y
 _atom_site_fract_z
 _atom_site_occupancy
  Li  Li0  1  0.00000000  0.75000000  0.04330000  1.0
  Li  Li1  1  0.50000000  0.75000000  0.04330000  1.0
  Li  Li2  1  0.25000000  0.25000000  0.12991000  1.0
  Li  Li3  1  0.75000000  0.25000000  0.12991000  1.0
  Li  Li4  1  0.50000000  0.53127000  0.82140000  1.0
  Li  Li5  1  0.00000000  0.56954000  0.82478000  1.0
  Li  Li6  1  0.74407000  0.21858000  0.95201000  1.0
  Li  Li7  1  0.25593000  0.21858000  0.95201000  1.0
  Y  Y8  1  0.25000000  0.00000000  0.04330000  1.0
  Y  Y9  1  0.75000000  0.00000000  0.04330000  1.0
  Y  Y10  1  0.50000000  0.50000000  0.12991000  1.0
  Y  Y11  1  0.00000000  0.50000000  0.12991000  1.0
  Y  Y12  1  0.75786000  0.92647000  0.86836000  1.0
  Y  Y13  1  0.24214000  0.92647000  0.86836000  1.0
  Y  Y14  1  0.00000000  0.49579000  0.95223000  1.0
  Y  Y15  1  0.50000000  0.51609000  0.94605000  1.0
  Ga  Ga16  1  0.00000000  0.00000000  0.12991000  1.0
  Ga  Ga17  1  0.50000000  0.00000000  0.12991000  1.0
  Ga  Ga18  1  0.75000000  0.50000000  0.04330000  1.0
  Ga  Ga19  1  0.25000000  0.50000000  0.04330000  1.0
  Ga  Ga20  1  0.50000000  0.98926000  0.95934000  1.0
  Ga  Ga21  1  0.00000000  0.98826000  0.95786000  1.0
  Ga  Ga22  1  0.24829000  0.44126000  0.86977000  1.0
  Ga  Ga23  1  0.75171000  0.44126000  0.86977000  1.0
  Pd  Pd24  1  0.00000000  0.25000000  0.04330000  1.0
  Pd  Pd25  1  0.50000000  0.25000000  0.04330000  1.0
  Pd  Pd26  1  0.25000000  0.75000000  0.12991000  1.0
  Pd  Pd27  1  0.75000000  0.75000000  0.12991000  1.0
  Pd  Pd28  1  0.50000000  0.20375000  0.87818000  1.0
  Pd  Pd29  1  0.00000000  0.22066000  0.87661000  1.0
  Pd  Pd30  1  0.75381000  0.74517000  0.96128000  1.0
  Pd  Pd31  1  0.24619000  0.74517000  0.96128000  1.0
  C  C32  1  0.00000000  0.89235000  0.81384000  1.0
  O  O33  1  0.00000000  0.99666000  0.77761000  1.0
