# generated using pymatgen
data_Li8Y8Ga8Pd8CO
_symmetry_space_group_name_H-M   Pm
_cell_length_a   6.61884000
_cell_length_b   9.36046000
_cell_length_c   27.02030000
_cell_angle_alpha   90.00000000
_cell_angle_beta   90.00000000
_cell_angle_gamma   90.00000000
_symmetry_Int_Tables_number   6
_chemical_formula_structural   Li8Y8Ga8Pd8CO
_chemical_formula_sum   'Li8 Y8 Ga8 Pd8 C1 O1'
_cell_volume   1674.05314515
_cell_formula_units_Z   1
loop_
 _symmetry_equiv_pos_site_id
 _symmetry_equiv_pos_as_xyz
  1  'x, y, z'
  2  'x, -y, z'
loop_
 _atom_site_type_symbol
 _atom_site_label
 _atom_site_symmetry_multiplicity
 _atom_site_fract_x
 _atom_site_fract_y
 _atom_site_fract_z
 _atom_site_occupancy
  Li  Li0  2  0.21858000  0.25593000  0.04799000  1.0
  Li  Li1  2  0.25000000  0.25000000  0.87009000  1.0
  Li  Li2  1  0.53127000  0.50000000  0.17860000  1.0
  Li  Li3  1  0.56954000  0.00000000  0.17522000  1.0
  Li  Li4  1  0.75000000  0.00000000  0.95670000  1.0
  Li  Li5  1  0.75000000  0.50000000  0.95670000  1.0
  Y  Y6  2  0.00000000  0.25000000  0.95670000  1.0
  Y  Y7  2  0.92647000  0.24214000  0.13164000  1.0
  Y  Y8  1  0.49579000  0.00000000  0.04777000  1.0
  Y  Y9  1  0.50000000  0.00000000  0.87009000  1.0
  Y  Y10  1  0.50000000  0.50000000  0.87009000  1.0
  Y  Y11  1  0.51609000  0.50000000  0.05395000  1.0
  Ga  Ga12  2  0.44126000  0.24829000  0.13023000  1.0
  Ga  Ga13  2  0.50000000  0.25000000  0.95670000  1.0
  Ga  Ga14  1  0.00000000  0.00000000  0.87009000  1.0
  Ga  Ga15  1  0.00000000  0.50000000  0.87009000  1.0
  Ga  Ga16  1  0.98826000  0.00000000  0.04214000  1.0
  Ga  Ga17  1  0.98926000  0.50000000  0.04066000  1.0
  Pd  Pd18  2  0.74517000  0.24619000  0.03872000  1.0
  Pd  Pd19  2  0.75000000  0.25000000  0.87009000  1.0
  Pd  Pd20  1  0.20375000  0.50000000  0.12182000  1.0
  Pd  Pd21  1  0.22066000  0.00000000  0.12339000  1.0
  Pd  Pd22  1  0.25000000  0.00000000  0.95670000  1.0
  Pd  Pd23  1  0.25000000  0.50000000  0.95670000  1.0
  C  C24  1  0.89235000  0.00000000  0.18616000  1.0
  O  O25  1  0.99666000  0.00000000  0.22239000  1.0
