# generated using pymatgen
data_KNa2Sb
_symmetry_space_group_name_H-M   'P 1'
_cell_length_a   7.84214000
_cell_length_b   7.84214000
_cell_length_c   25.88160000
_cell_angle_alpha   90.00000000
_cell_angle_beta   90.00000000
_cell_angle_gamma   90.00000000
_symmetry_Int_Tables_number   1
_chemical_formula_structural   KNa2Sb
_chemical_formula_sum   'K4 Na8 Sb4'
_cell_volume   1591.69665375
_cell_formula_units_Z   4
loop_
 _symmetry_equiv_pos_site_id
 _symmetry_equiv_pos_as_xyz
  1  'x, y, z'
loop_
 _atom_site_type_symbol
 _atom_site_label
 _atom_site_symmetry_multiplicity
 _atom_site_fract_x
 _atom_site_fract_y
 _atom_site_fract_z
 _atom_site_occupancy
  K  K0  1  0.00000000  0.00000000  0.88637000  1.0
  K  K1  1  0.50000000  0.50000000  0.88637000  1.0
  K  K2  1  0.49962000  0.99970000  0.03278000  1.0
  K  K3  1  0.00038000  0.50002000  0.03296000  1.0
  Na  Na4  1  0.25000000  0.25000000  0.96212000  1.0
  Na  Na5  1  0.74996000  0.75006000  0.11916000  1.0
  Na  Na6  1  0.75000000  0.25000000  0.96212000  1.0
  Na  Na7  1  0.25004000  0.75007000  0.11920000  1.0
  Na  Na8  1  0.75000000  0.75000000  0.96212000  1.0
  Na  Na9  1  0.25006000  0.24997000  0.11918000  1.0
  Na  Na10  1  0.25000000  0.75000000  0.96212000  1.0
  Na  Na11  1  0.74995000  0.24996000  0.11914000  1.0
  Sb  Sb12  1  1.00000000  0.00001000  0.05660000  1.0
  Sb  Sb13  1  0.50000000  0.00000000  0.88637000  1.0
  Sb  Sb14  1  1.00000000  0.50000000  0.88637000  1.0
  Sb  Sb15  1  0.50000000  0.50002000  0.05660000  1.0
