data_image0
_chemical_formula_structural       Li8Mg8Ag8Ge8C
_chemical_formula_sum              "Li8 Mg8 Ag8 Ge8 C1"
_cell_length_a       6.50572
_cell_length_b       9.20048
_cell_length_c       26.9004
_cell_angle_alpha    90
_cell_angle_beta     90
_cell_angle_gamma    90

_space_group_name_H-M_alt    "P 1"
_space_group_IT_number       1

loop_
  _space_group_symop_operation_xyz
  'x, y, z'

loop_
  _atom_site_type_symbol
  _atom_site_label
  _atom_site_symmetry_multiplicity
  _atom_site_fract_x
  _atom_site_fract_y
  _atom_site_fract_z
  _atom_site_occupancy
  Li  Li1       1.0  0.75000  0.00000  0.95725  1.0000
  Li  Li2       1.0  0.75000  0.50000  0.95725  1.0000
  Li  Li3       1.0  0.25000  0.25000  0.87174  1.0000
  Li  Li4       1.0  0.25000  0.75000  0.87174  1.0000
  Li  Li5       1.0  0.75503  0.48230  0.13785  1.0000
  Li  Li6       1.0  0.75503  0.01770  0.13785  1.0000
  Li  Li7       1.0  0.25595  0.75000  0.04458  1.0000
  Li  Li8       1.0  0.25740  0.25000  0.04259  1.0000
  Mg  Mg1       1.0  0.25000  0.00000  0.95725  1.0000
  Mg  Mg2       1.0  0.25000  0.50000  0.95725  1.0000
  Mg  Mg3       1.0  0.75000  0.25000  0.87174  1.0000
  Mg  Mg4       1.0  0.75000  0.75000  0.87174  1.0000
  Mg  Mg5       1.0  0.25707  0.53243  0.13432  1.0000
  Mg  Mg6       1.0  0.25707  0.96757  0.13432  1.0000
  Mg  Mg7       1.0  0.74672  0.75000  0.04156  1.0000
  Mg  Mg8       1.0  0.73270  0.25000  0.05320  1.0000
  Ag  Ag1       1.0  0.00000  0.00000  0.87174  1.0000
  Ag  Ag2       1.0  0.00000  0.50000  0.87174  1.0000
  Ag  Ag3       1.0  0.50000  0.75000  0.95725  1.0000
  Ag  Ag4       1.0  0.50000  0.25000  0.95725  1.0000
  Ag  Ag5       1.0  0.00561  0.50383  0.04590  1.0000
  Ag  Ag6       1.0  0.00562  0.99617  0.04591  1.0000
  Ag  Ag7       1.0  0.44507  0.25000  0.15014  1.0000
  Ag  Ag8       1.0  0.55610  0.75000  0.13397  1.0000
  Ge  Ge1       1.0  0.00000  0.25000  0.95725  1.0000
  Ge  Ge2       1.0  0.00000  0.75000  0.95725  1.0000
  Ge  Ge3       1.0  0.50000  0.50000  0.87174  1.0000
  Ge  Ge4       1.0  0.50000  0.00000  0.87174  1.0000
  Ge  Ge5       1.0  0.97208  0.75000  0.13081  1.0000
  Ge  Ge6       1.0  0.05021  0.25000  0.13609  1.0000
  Ge  Ge7       1.0  0.49573  0.99563  0.04615  1.0000
  Ge  Ge8       1.0  0.49573  0.50438  0.04615  1.0000
  C   C1        1.0  0.76787  0.25000  0.13811  1.0000
