# generated using pymatgen
data_Li8Mg8Ag8Ge8C
_symmetry_space_group_name_H-M   'P 1'
_cell_length_a   9.20048000
_cell_length_b   6.50572000
_cell_length_c   26.90040000
_cell_angle_alpha   90.00000000
_cell_angle_beta   90.00000000
_cell_angle_gamma   90.00000000
_symmetry_Int_Tables_number   1
_chemical_formula_structural   Li8Mg8Ag8Ge8C
_chemical_formula_sum   'Li8 Mg8 Ag8 Ge8 C1'
_cell_volume   1610.14352976
_cell_formula_units_Z   1
loop_
 _symmetry_equiv_pos_site_id
 _symmetry_equiv_pos_as_xyz
  1  'x, y, z'
loop_
 _atom_site_type_symbol
 _atom_site_label
 _atom_site_symmetry_multiplicity
 _atom_site_fract_x
 _atom_site_fract_y
 _atom_site_fract_z
 _atom_site_occupancy
  Li  Li0  1  0.75000000  0.75000000  0.04275000  1.0
  Li  Li1  1  0.25000000  0.75000000  0.04275000  1.0
  Li  Li2  1  0.00000000  0.25000000  0.12826000  1.0
  Li  Li3  1  0.50000000  0.25000000  0.12826000  1.0
  Li  Li4  1  0.23230000  0.75503000  0.86215000  1.0
  Li  Li5  1  0.76770000  0.75503000  0.86215000  1.0
  Li  Li6  1  0.50000000  0.25595000  0.95542000  1.0
  Li  Li7  1  0.00000000  0.25740000  0.95741000  1.0
  Mg  Mg8  1  0.75000000  0.25000000  0.04275000  1.0
  Mg  Mg9  1  0.25000000  0.25000000  0.04275000  1.0
  Mg  Mg10  1  0.00000000  0.75000000  0.12826000  1.0
  Mg  Mg11  1  0.50000000  0.75000000  0.12826000  1.0
  Mg  Mg12  1  0.28243000  0.25707000  0.86568000  1.0
  Mg  Mg13  1  0.71757000  0.25707000  0.86568000  1.0
  Mg  Mg14  1  0.50000000  0.74672000  0.95844000  1.0
  Mg  Mg15  1  0.00000000  0.73270000  0.94680000  1.0
  Ag  Ag16  1  0.75000000  0.00000000  0.12826000  1.0
  Ag  Ag17  1  0.25000000  0.00000000  0.12826000  1.0
  Ag  Ag18  1  0.50000000  0.50000000  0.04275000  1.0
  Ag  Ag19  1  0.00000000  0.50000000  0.04275000  1.0
  Ag  Ag20  1  0.25383000  0.00561000  0.95410000  1.0
  Ag  Ag21  1  0.74617000  0.00561000  0.95410000  1.0
  Ag  Ag22  1  0.00000000  0.44507000  0.84986000  1.0
  Ag  Ag23  1  0.50000000  0.55610000  0.86603000  1.0
  Ge  Ge24  1  0.00000000  0.00000000  0.04275000  1.0
  Ge  Ge25  1  0.50000000  0.00000000  0.04275000  1.0
  Ge  Ge26  1  0.25000000  0.50000000  0.12826000  1.0
  Ge  Ge27  1  0.75000000  0.50000000  0.12826000  1.0
  Ge  Ge28  1  0.50000000  0.97208000  0.86919000  1.0
  Ge  Ge29  1  0.00000000  0.05021000  0.86391000  1.0
  Ge  Ge30  1  0.74563000  0.49573000  0.95385000  1.0
  Ge  Ge31  1  0.25437000  0.49573000  0.95385000  1.0
  C  C32  1  0.00000000  0.76787000  0.86189000  1.0
