# generated using pymatgen
data_Li8Ga8Ni8Pd8CO
_symmetry_space_group_name_H-M   'P 1'
_cell_length_a   8.38940000
_cell_length_b   5.93220000
_cell_length_c   26.29200000
_cell_angle_alpha   90.00000000
_cell_angle_beta   90.00000000
_cell_angle_gamma   90.00000000
_symmetry_Int_Tables_number   1
_chemical_formula_structural   Li8Ga8Ni8Pd8CO
_chemical_formula_sum   'Li8 Ga8 Ni8 Pd8 C1 O1'
_cell_volume   1308.48970449
_cell_formula_units_Z   1
loop_
 _symmetry_equiv_pos_site_id
 _symmetry_equiv_pos_as_xyz
  1  'x, y, z'
loop_
 _atom_site_type_symbol
 _atom_site_label
 _atom_site_symmetry_multiplicity
 _atom_site_fract_x
 _atom_site_fract_y
 _atom_site_fract_z
 _atom_site_occupancy
  Li  Li0  1  0.00000000  0.00000000  0.03989000  1.0
  Li  Li1  1  0.50000000  0.00000000  0.03989000  1.0
  Li  Li2  1  0.25000000  0.50000000  0.11966000  1.0
  Li  Li3  1  0.75000000  0.50000000  0.11966000  1.0
  Li  Li4  1  0.50000000  0.00799000  0.86507000  1.0
  Li  Li5  1  0.00000000  0.00635000  0.86678000  1.0
  Li  Li6  1  0.74856000  0.50489000  0.96274000  1.0
  Li  Li7  1  0.25144000  0.50489000  0.96274000  1.0
  Ga  Ga8  1  0.75000000  0.00000000  0.11966000  1.0
  Ga  Ga9  1  0.25000000  0.00000000  0.11966000  1.0
  Ga  Ga10  1  0.50000000  0.50000000  0.03989000  1.0
  Ga  Ga11  1  0.00000000  0.50000000  0.03989000  1.0
  Ga  Ga12  1  0.24814000  0.99999000  0.96094000  1.0
  Ga  Ga13  1  0.75186000  0.99999000  0.96094000  1.0
  Ga  Ga14  1  0.00000000  0.49143000  0.87355000  1.0
  Ga  Ga15  1  0.50000000  0.49293000  0.87942000  1.0
  Ni  Ni16  1  0.75000000  0.25000000  0.03989000  1.0
  Ni  Ni17  1  0.25000000  0.25000000  0.03989000  1.0
  Ni  Ni18  1  0.00000000  0.75000000  0.11966000  1.0
  Ni  Ni19  1  0.50000000  0.75000000  0.11966000  1.0
  Ni  Ni20  1  0.25148000  0.26977000  0.88840000  1.0
  Ni  Ni21  1  0.74852000  0.26977000  0.88840000  1.0
  Ni  Ni22  1  0.50000000  0.75751000  0.95936000  1.0
  Ni  Ni23  1  0.00000000  0.75374000  0.95802000  1.0
  Pd  Pd24  1  0.75000000  0.75000000  0.03989000  1.0
  Pd  Pd25  1  0.25000000  0.75000000  0.03989000  1.0
  Pd  Pd26  1  0.00000000  0.25000000  0.11966000  1.0
  Pd  Pd27  1  0.50000000  0.25000000  0.11966000  1.0
  Pd  Pd28  1  0.25087000  0.74063000  0.88430000  1.0
  Pd  Pd29  1  0.74913000  0.74063000  0.88430000  1.0
  Pd  Pd30  1  0.50000000  0.24340000  0.96022000  1.0
  Pd  Pd31  1  0.00000000  0.25174000  0.95836000  1.0
  C  C32  1  0.00000000  0.48963000  0.79106000  1.0
  O  O33  1  0.00000000  0.49282000  0.74735000  1.0
