# generated using pymatgen
data_Li8Ga8Ni8Pd8CO
_symmetry_space_group_name_H-M   Pm
_cell_length_a   5.93220000
_cell_length_b   8.38940000
_cell_length_c   26.29200000
_cell_angle_alpha   90.00000000
_cell_angle_beta   90.00000000
_cell_angle_gamma   90.00000000
_symmetry_Int_Tables_number   6
_chemical_formula_structural   Li8Ga8Ni8Pd8CO
_chemical_formula_sum   'Li8 Ga8 Ni8 Pd8 C1 O1'
_cell_volume   1308.48970449
_cell_formula_units_Z   1
loop_
 _symmetry_equiv_pos_site_id
 _symmetry_equiv_pos_as_xyz
  1  'x, y, z'
  2  'x, -y, z'
loop_
 _atom_site_type_symbol
 _atom_site_label
 _atom_site_symmetry_multiplicity
 _atom_site_fract_x
 _atom_site_fract_y
 _atom_site_fract_z
 _atom_site_occupancy
  Li  Li0  2  0.50000000  0.25000000  0.88034000  1.0
  Li  Li1  2  0.50489000  0.25144000  0.03726000  1.0
  Li  Li2  1  0.00000000  0.00000000  0.96011000  1.0
  Li  Li3  1  0.00000000  0.50000000  0.96011000  1.0
  Li  Li4  1  0.00635000  0.00000000  0.13322000  1.0
  Li  Li5  1  0.00799000  0.50000000  0.13493000  1.0
  Ga  Ga6  2  0.00000000  0.25000000  0.88034000  1.0
  Ga  Ga7  2  0.99999000  0.24814000  0.03906000  1.0
  Ga  Ga8  1  0.49143000  0.00000000  0.12645000  1.0
  Ga  Ga9  1  0.49293000  0.50000000  0.12058000  1.0
  Ga  Ga10  1  0.50000000  0.00000000  0.96011000  1.0
  Ga  Ga11  1  0.50000000  0.50000000  0.96011000  1.0
  Ni  Ni12  2  0.25000000  0.25000000  0.96011000  1.0
  Ni  Ni13  2  0.26977000  0.25148000  0.11160000  1.0
  Ni  Ni14  1  0.75000000  0.00000000  0.88034000  1.0
  Ni  Ni15  1  0.75000000  0.50000000  0.88034000  1.0
  Ni  Ni16  1  0.75374000  0.00000000  0.04198000  1.0
  Ni  Ni17  1  0.75751000  0.50000000  0.04064000  1.0
  Pd  Pd18  2  0.74063000  0.25087000  0.11570000  1.0
  Pd  Pd19  2  0.75000000  0.25000000  0.96011000  1.0
  Pd  Pd20  1  0.24340000  0.50000000  0.03978000  1.0
  Pd  Pd21  1  0.25000000  0.00000000  0.88034000  1.0
  Pd  Pd22  1  0.25000000  0.50000000  0.88034000  1.0
  Pd  Pd23  1  0.25174000  0.00000000  0.04164000  1.0
  C  C24  1  0.48963000  0.00000000  0.20894000  1.0
  O  O25  1  0.49282000  0.00000000  0.25265000  1.0
