# generated using pymatgen
data_Pt12Pb4CO
_symmetry_space_group_name_H-M   'P 1'
_cell_length_a   5.89768000
_cell_length_b   8.34058000
_cell_length_c   24.42330000
_cell_angle_alpha   90.00000000
_cell_angle_beta   90.00000000
_cell_angle_gamma   90.00000000
_symmetry_Int_Tables_number   1
_chemical_formula_structural   Pt12Pb4CO
_chemical_formula_sum   'Pt12 Pb4 C1 O1'
_cell_volume   1201.38388192
_cell_formula_units_Z   1
loop_
 _symmetry_equiv_pos_site_id
 _symmetry_equiv_pos_as_xyz
  1  'x, y, z'
loop_
 _atom_site_type_symbol
 _atom_site_label
 _atom_site_symmetry_multiplicity
 _atom_site_fract_x
 _atom_site_fract_y
 _atom_site_fract_z
 _atom_site_occupancy
  Pt  Pt0  1  0.50000000  0.00000000  0.91389000  1.0
  Pt  Pt1  1  0.76009000  0.25453000  0.96750000  1.0
  Pt  Pt2  1  0.23991000  0.25453000  0.96750000  1.0
  Pt  Pt3  1  0.00000000  0.00000000  0.03018000  1.0
  Pt  Pt4  1  0.25000000  0.25000000  0.09055000  1.0
  Pt  Pt5  1  0.75000000  0.25000000  0.09055000  1.0
  Pt  Pt6  1  0.50000000  0.50000000  0.91858000  1.0
  Pt  Pt7  1  0.76009000  0.74547000  0.96750000  1.0
  Pt  Pt8  1  0.23991000  0.74547000  0.96750000  1.0
  Pt  Pt9  1  0.00000000  0.50000000  0.03018000  1.0
  Pt  Pt10  1  0.25000000  0.75000000  0.09055000  1.0
  Pt  Pt11  1  0.75000000  0.75000000  0.09055000  1.0
  Pb  Pb12  1  0.00000000  0.00000000  0.90635000  1.0
  Pb  Pb13  1  0.50000000  0.00000000  0.03018000  1.0
  Pb  Pb14  1  0.00000000  0.50000000  0.90079000  1.0
  Pb  Pb15  1  0.50000000  0.50000000  0.03018000  1.0
  C  C16  1  0.50000000  0.00000000  0.83627000  1.0
  O  O17  1  0.50000000  0.00000000  0.78885000  1.0
