# generated using pymatgen
data_Li8In4Ag4CO
_symmetry_space_group_name_H-M   P2
_cell_length_a   6.67495000
_cell_length_b   25.00620000
_cell_length_c   6.67495000
_cell_angle_alpha   90.00000000
_cell_angle_beta   90.00000000
_cell_angle_gamma   90.00000000
_symmetry_Int_Tables_number   3
_chemical_formula_structural   Li8In4Ag4CO
_chemical_formula_sum   'Li8 In4 Ag4 C1 O1'
_cell_volume   1114.15017830
_cell_formula_units_Z   1
loop_
 _symmetry_equiv_pos_site_id
 _symmetry_equiv_pos_as_xyz
  1  'x, y, z'
  2  '-x, y, -z'
loop_
 _atom_site_type_symbol
 _atom_site_label
 _atom_site_symmetry_multiplicity
 _atom_site_fract_x
 _atom_site_fract_y
 _atom_site_fract_z
 _atom_site_occupancy
  Li  Li0  2  0.24811000  0.03294000  0.25180000  1.0
  Li  Li1  2  0.25000000  0.89990000  0.75000000  1.0
  Li  Li2  1  0.00000000  0.10027000  0.50000000  1.0
  Li  Li3  1  0.00000000  0.96663000  0.00000000  1.0
  Li  Li4  1  0.50000000  0.10027000  0.00000000  1.0
  Li  Li5  1  0.50000000  0.96663000  0.50000000  1.0
  In  In6  1  0.00000000  0.09832000  0.00000000  1.0
  In  In7  1  0.00000000  0.96663000  0.50000000  1.0
  In  In8  1  0.50000000  0.09843000  0.50000000  1.0
  In  In9  1  0.50000000  0.96663000  0.00000000  1.0
  Ag  Ag10  2  0.25000000  0.89990000  0.25000000  1.0
  Ag  Ag11  2  0.25011000  0.03174000  0.75006000  1.0
  C  C12  1  0.50000000  0.18320000  0.00000000  1.0
  O  O13  1  0.50000000  0.22889000  0.00000000  1.0
