# generated using pymatgen
data_Li16Sb8Pd8CO
_symmetry_space_group_name_H-M   'P 1'
_cell_length_a   9.09870000
_cell_length_b   6.43375000
_cell_length_c   26.82400000
_cell_angle_alpha   90.00000000
_cell_angle_beta   90.00000000
_cell_angle_gamma   90.00000000
_symmetry_Int_Tables_number   1
_chemical_formula_structural   Li16Sb8Pd8CO
_chemical_formula_sum   'Li16 Sb8 Pd8 C1 O1'
_cell_volume   1570.24372842
_cell_formula_units_Z   1
loop_
 _symmetry_equiv_pos_site_id
 _symmetry_equiv_pos_as_xyz
  1  'x, y, z'
loop_
 _atom_site_type_symbol
 _atom_site_label
 _atom_site_symmetry_multiplicity
 _atom_site_fract_x
 _atom_site_fract_y
 _atom_site_fract_z
 _atom_site_occupancy
  Li  Li0  1  0.25001000  1.00000000  0.04240000  1.0
  Li  Li1  1  0.50000000  0.50000000  0.12720000  1.0
  Li  Li2  1  0.74999000  1.00000000  0.04240000  1.0
  Li  Li3  1  0.00000000  0.50000000  0.12720000  1.0
  Li  Li4  1  0.75001000  0.25000000  0.12720000  1.0
  Li  Li5  1  0.24999000  0.25000000  0.12720000  1.0
  Li  Li6  1  0.00000000  0.75000000  0.04240000  1.0
  Li  Li7  1  0.50000000  0.75000000  0.04240000  1.0
  Li  Li8  1  0.75892000  0.02287000  0.87484000  1.0
  Li  Li9  1  0.00000000  0.51717000  0.96246000  1.0
  Li  Li10  1  0.24108000  0.02287000  0.87484000  1.0
  Li  Li11  1  0.50000000  0.49430000  0.95157000  1.0
  Li  Li12  1  0.24557000  0.25612000  0.95759000  1.0
  Li  Li13  1  0.75443000  0.25612000  0.95759000  1.0
  Li  Li14  1  0.50000000  0.75699000  0.86474000  1.0
  Li  Li15  1  0.00000000  0.71414000  0.86991000  1.0
  Sb  Sb16  1  0.50000000  0.00000000  0.12720000  1.0
  Sb  Sb17  1  0.75001000  0.50000000  0.04240000  1.0
  Sb  Sb18  1  0.24999000  0.50000000  0.04240000  1.0
  Sb  Sb19  1  0.00000000  1.00000000  0.12720000  1.0
  Sb  Sb20  1  0.00000000  0.98666000  0.95557000  1.0
  Sb  Sb21  1  0.25572000  0.49576000  0.87083000  1.0
  Sb  Sb22  1  0.74428000  0.49576000  0.87083000  1.0
  Sb  Sb23  1  0.50000000  0.00024000  0.95743000  1.0
  Pd  Pd24  1  0.50000000  0.25000000  0.04240000  1.0
  Pd  Pd25  1  0.00000000  0.25000000  0.04240000  1.0
  Pd  Pd26  1  0.25001000  0.75000000  0.12720000  1.0
  Pd  Pd27  1  0.74999000  0.75000000  0.12720000  1.0
  Pd  Pd28  1  0.00000000  0.28223000  0.88648000  1.0
  Pd  Pd29  1  0.50000000  0.22372000  0.86757000  1.0
  Pd  Pd30  1  0.74353000  0.74808000  0.95615000  1.0
  Pd  Pd31  1  0.25647000  0.74808000  0.95615000  1.0
  C  C32  1  0.50000000  0.08910000  0.80290000  1.0
  O  O33  1  0.50000000  0.05594000  0.76042000  1.0
