# generated using pymatgen
data_Li16Sb8Pd8CO
_symmetry_space_group_name_H-M   Pm
_cell_length_a   6.43375000
_cell_length_b   9.09870000
_cell_length_c   26.82400000
_cell_angle_alpha   90.00000000
_cell_angle_beta   90.00000000
_cell_angle_gamma   90.00000000
_symmetry_Int_Tables_number   6
_chemical_formula_structural   Li16Sb8Pd8CO
_chemical_formula_sum   'Li16 Sb8 Pd8 C1 O1'
_cell_volume   1570.24372842
_cell_formula_units_Z   1
loop_
 _symmetry_equiv_pos_site_id
 _symmetry_equiv_pos_as_xyz
  1  'x, y, z'
  2  'x, -y, z'
loop_
 _atom_site_type_symbol
 _atom_site_label
 _atom_site_symmetry_multiplicity
 _atom_site_fract_x
 _atom_site_fract_y
 _atom_site_fract_z
 _atom_site_occupancy
  Li  Li0  2  -0.00000000  0.25001000  0.95760000  1.0
  Li  Li1  2  0.02287000  0.24108000  0.12516000  1.0
  Li  Li2  2  0.25000000  0.24999000  0.87280000  1.0
  Li  Li3  2  0.25612000  0.24557000  0.04241000  1.0
  Li  Li4  1  0.49430000  0.50000000  0.04843000  1.0
  Li  Li5  1  0.50000000  0.00000000  0.87280000  1.0
  Li  Li6  1  0.50000000  0.50000000  0.87280000  1.0
  Li  Li7  1  0.51717000  0.00000000  0.03754000  1.0
  Li  Li8  1  0.71414000  0.00000000  0.13009000  1.0
  Li  Li9  1  0.75000000  0.00000000  0.95760000  1.0
  Li  Li10  1  0.75000000  0.50000000  0.95760000  1.0
  Li  Li11  1  0.75699000  0.50000000  0.13526000  1.0
  Sb  Sb12  2  0.49576000  0.25572000  0.12917000  1.0
  Sb  Sb13  2  0.50000000  0.24999000  0.95760000  1.0
  Sb  Sb14  1  -0.00000000  0.00000000  0.87280000  1.0
  Sb  Sb15  1  0.00000000  0.50000000  0.87280000  1.0
  Sb  Sb16  1  0.00024000  0.50000000  0.04257000  1.0
  Sb  Sb17  1  0.98666000  0.00000000  0.04443000  1.0
  Pd  Pd18  2  0.74808000  0.25647000  0.04385000  1.0
  Pd  Pd19  2  0.75000000  0.25001000  0.87280000  1.0
  Pd  Pd20  1  0.22372000  0.50000000  0.13243000  1.0
  Pd  Pd21  1  0.25000000  0.00000000  0.95760000  1.0
  Pd  Pd22  1  0.25000000  0.50000000  0.95760000  1.0
  Pd  Pd23  1  0.28223000  0.00000000  0.11352000  1.0
  C  C24  1  0.08910000  0.50000000  0.19710000  1.0
  O  O25  1  0.05594000  0.50000000  0.23958000  1.0
