# generated using pymatgen
data_Y8In8Sn8Pd8CO
_symmetry_space_group_name_H-M   Pmm2
_cell_length_a   8.73372000
_cell_length_b   9.06394000
_cell_length_c   26.87300000
_cell_angle_alpha   90.00000000
_cell_angle_beta   90.00000000
_cell_angle_gamma   90.00000000
_symmetry_Int_Tables_number   25
_chemical_formula_structural   Y8In8Sn8Pd8CO
_chemical_formula_sum   'Y8 In8 Sn8 Pd8 C1 O1'
_cell_volume   2127.31811645
_cell_formula_units_Z   1
loop_
 _symmetry_equiv_pos_site_id
 _symmetry_equiv_pos_as_xyz
  1  'x, y, z'
  2  '-x, -y, z'
  3  '-x, y, z'
  4  'x, -y, z'
loop_
 _atom_site_type_symbol
 _atom_site_label
 _atom_site_symmetry_multiplicity
 _atom_site_fract_x
 _atom_site_fract_y
 _atom_site_fract_z
 _atom_site_occupancy
  Y  Y0  2  0.24317000  0.50000000  0.04610000  1.0
  Y  Y1  2  0.25000000  0.00000000  0.87212000  1.0
  Y  Y2  2  0.25000000  0.50000000  0.87212000  1.0
  Y  Y3  2  0.25233000  0.00000000  0.04664000  1.0
  In  In4  4  0.25000000  0.25000000  0.95737000  1.0
  In  In5  4  0.28971000  0.25274000  0.14201000  1.0
  Sn  Sn6  2  0.00000000  0.24296000  0.05639000  1.0
  Sn  Sn7  2  0.00000000  0.25000000  0.87212000  1.0
  Sn  Sn8  2  0.50000000  0.25000000  0.87212000  1.0
  Sn  Sn9  2  0.50000000  0.25339000  0.03991000  1.0
  Pd  Pd10  1  0.00000000  0.00000000  0.12895000  1.0
  Pd  Pd11  1  0.00000000  0.00000000  0.95737000  1.0
  Pd  Pd12  1  0.00000000  0.50000000  0.12041000  1.0
  Pd  Pd13  1  0.00000000  0.50000000  0.95737000  1.0
  Pd  Pd14  1  0.50000000  0.00000000  0.12211000  1.0
  Pd  Pd15  1  0.50000000  0.00000000  0.95737000  1.0
  Pd  Pd16  1  0.50000000  0.50000000  0.11857000  1.0
  Pd  Pd17  1  0.50000000  0.50000000  0.95737000  1.0
  C  C18  1  0.00000000  0.00000000  0.20301000  1.0
  O  O19  1  0.00000000  0.00000000  0.24584000  1.0
