# generated using pymatgen
data_Li8Zr8Ge8Pd8C
_symmetry_space_group_name_H-M   Pm
_cell_length_a   6.47880000
_cell_length_b   9.16240000
_cell_length_c   26.87180000
_cell_angle_alpha   90.00000000
_cell_angle_beta   90.00000000
_cell_angle_gamma   90.00000000
_symmetry_Int_Tables_number   6
_chemical_formula_structural   Li8Zr8Ge8Pd8C
_chemical_formula_sum   'Li8 Zr8 Ge8 Pd8 C1'
_cell_volume   1595.14651626
_cell_formula_units_Z   1
loop_
 _symmetry_equiv_pos_site_id
 _symmetry_equiv_pos_as_xyz
  1  'x, y, z'
  2  'x, -y, z'
loop_
 _atom_site_type_symbol
 _atom_site_label
 _atom_site_symmetry_multiplicity
 _atom_site_fract_x
 _atom_site_fract_y
 _atom_site_fract_z
 _atom_site_occupancy
  Li  Li0  2  0.74881000  0.25085000  0.04137000  1.0
  Li  Li1  2  0.75000000  0.25000000  0.87214000  1.0
  Li  Li2  1  0.22953000  0.00000000  0.12414000  1.0
  Li  Li3  1  0.23742000  0.50000000  0.13718000  1.0
  Li  Li4  1  0.25000000  0.00000000  0.95738000  1.0
  Li  Li5  1  0.25000000  0.50000000  0.95738000  1.0
  Zr  Zr6  2  0.25000000  0.25000000  0.87214000  1.0
  Zr  Zr7  2  0.25514000  0.24247000  0.04415000  1.0
  Zr  Zr8  1  0.71990000  0.50000000  0.11940000  1.0
  Zr  Zr9  1  0.75000000  0.00000000  0.95738000  1.0
  Zr  Zr10  1  0.75000000  0.50000000  0.95738000  1.0
  Zr  Zr11  1  0.82943000  0.00000000  0.14417000  1.0
  Ge  Ge12  2  0.49827000  0.22519000  0.13369000  1.0
  Ge  Ge13  2  0.50000000  0.25000000  0.95738000  1.0
  Ge  Ge14  1  0.00000000  0.00000000  0.87214000  1.0
  Ge  Ge15  1  0.00000000  0.50000000  0.87214000  1.0
  Ge  Ge16  1  0.01150000  0.50000000  0.04666000  1.0
  Ge  Ge17  1  0.97766000  0.00000000  0.04612000  1.0
  Pd  Pd18  2  0.00000000  0.25000000  0.95738000  1.0
  Pd  Pd19  2  0.98522000  0.26675000  0.12199000  1.0
  Pd  Pd20  1  0.46806000  0.50000000  0.03900000  1.0
  Pd  Pd21  1  0.50000000  0.00000000  0.87214000  1.0
  Pd  Pd22  1  0.50000000  0.50000000  0.87214000  1.0
  Pd  Pd23  1  0.53992000  0.00000000  0.05824000  1.0
  C  C24  1  0.51812000  0.00000000  0.14345000  1.0
