# generated using pymatgen
data_MgScInPd
_symmetry_space_group_name_H-M   'P 1'
_cell_length_a   6.76782000
_cell_length_b   6.76782000
_cell_length_c   25.07590000
_cell_angle_alpha   90.00000000
_cell_angle_beta   90.00000000
_cell_angle_gamma   90.00000000
_symmetry_Int_Tables_number   1
_chemical_formula_structural   MgScInPd
_chemical_formula_sum   'Mg4 Sc4 In4 Pd4'
_cell_volume   1148.56116593
_cell_formula_units_Z   4
loop_
 _symmetry_equiv_pos_site_id
 _symmetry_equiv_pos_as_xyz
  1  'x, y, z'
loop_
 _atom_site_type_symbol
 _atom_site_label
 _atom_site_symmetry_multiplicity
 _atom_site_fract_x
 _atom_site_fract_y
 _atom_site_fract_z
 _atom_site_occupancy
  Mg  Mg0  1  0.74886500  0.25113500  0.03642000  1
  Mg  Mg1  1  0.25000000  0.25000000  0.89879000  1
  Mg  Mg2  1  0.75000000  0.75000000  0.89879000  1
  Mg  Mg3  1  0.25113500  0.74886500  0.03642000  1
  Sc  Sc4  1  0.75047500  0.75047500  0.03942000  1
  Sc  Sc5  1  0.24999500  0.75000500  0.89879000  1
  Sc  Sc6  1  0.75000500  0.24999500  0.89879000  1
  Sc  Sc7  1  0.24952500  0.24952500  0.03942000  1
  In  In8  1  0.00000000  0.00000000  0.12214000  1
  In  In9  1  0.50000000  0.00000000  0.96626000  1
  In  In10  1  0.00000000  0.50000000  0.96626000  1
  In  In11  1  0.50000000  0.50000000  0.12229000  1
  Pd  Pd12  1  0.50000000  0.00000000  0.09302000  1
  Pd  Pd13  1  0.00000000  0.00000000  0.96626000  1
  Pd  Pd14  1  0.50000000  0.50000000  0.96626000  1
  Pd  Pd15  1  0.00000000  0.50000000  0.09302000  1
