# generated using pymatgen
data_MgScInPd
_symmetry_space_group_name_H-M   Cmm2
_cell_length_a   9.57114283
_cell_length_b   9.57114283
_cell_length_c   25.07590000
_cell_angle_alpha   90.00000000
_cell_angle_beta   90.00000000
_cell_angle_gamma   90.00000000
_symmetry_Int_Tables_number   35
_chemical_formula_structural   MgScInPd
_chemical_formula_sum   'Mg8 Sc8 In8 Pd8'
_cell_volume   2297.12233185
_cell_formula_units_Z   8
loop_
 _symmetry_equiv_pos_site_id
 _symmetry_equiv_pos_as_xyz
  1  'x, y, z'
  2  '-x, -y, z'
  3  '-x, y, z'
  4  'x, -y, z'
  5  'x+1/2, y+1/2, z'
  6  '-x+1/2, -y+1/2, z'
  7  '-x+1/2, y+1/2, z'
  8  'x+1/2, -y+1/2, z'
loop_
 _atom_site_type_symbol
 _atom_site_label
 _atom_site_symmetry_multiplicity
 _atom_site_fract_x
 _atom_site_fract_y
 _atom_site_fract_z
 _atom_site_occupancy
  Mg  Mg0  4  0.00000000  0.25113500  0.03642000  1.0
  Mg  Mg1  4  0.25000000  0.00000000  0.89879000  1.0
  Sc  Sc2  4  0.00000000  0.24999500  0.89879000  1.0
  Sc  Sc3  4  0.24952500  0.00000000  0.03942000  1.0
  In  In4  4  0.25000000  0.25000000  0.96626000  1.0
  In  In5  2  0.00000000  0.00000000  0.12214000  1.0
  In  In6  2  0.00000000  0.50000000  0.12229000  1.0
  Pd  Pd7  4  0.25000000  0.25000000  0.09302000  1.0
  Pd  Pd8  2  0.00000000  0.00000000  0.96626000  1.0
  Pd  Pd9  2  0.00000000  0.50000000  0.96626000  1.0
