# generated using pymatgen
data_Li8Mg8In8Ge8CO
_symmetry_space_group_name_H-M   Pmm2
_cell_length_a   8.40992000
_cell_length_b   8.41850000
_cell_length_c   26.56300000
_cell_angle_alpha   90.00000000
_cell_angle_beta   90.00000000
_cell_angle_gamma   90.00000000
_symmetry_Int_Tables_number   25
_chemical_formula_structural   Li8Mg8In8Ge8CO
_chemical_formula_sum   'Li8 Mg8 In8 Ge8 C1 O1'
_cell_volume   1880.63148671
_cell_formula_units_Z   1
loop_
 _symmetry_equiv_pos_site_id
 _symmetry_equiv_pos_as_xyz
  1  'x, y, z'
  2  '-x, -y, z'
  3  '-x, y, z'
  4  'x, -y, z'
loop_
 _atom_site_type_symbol
 _atom_site_label
 _atom_site_symmetry_multiplicity
 _atom_site_fract_x
 _atom_site_fract_y
 _atom_site_fract_z
 _atom_site_occupancy
  Li  Li0  2  0.24004000  0.00000000  0.95452000  1.0
  Li  Li1  2  0.25000000  0.00000000  0.12354000  1.0
  Li  Li2  2  0.25000000  0.50000000  0.12354000  1.0
  Li  Li3  2  0.27768000  0.50000000  0.95467000  1.0
  Mg  Mg4  4  0.25000000  0.25000000  0.04118000  1.0
  Mg  Mg5  4  0.25308000  0.26035000  0.86386000  1.0
  In  In6  2  0.00000000  0.25000000  0.12354000  1.0
  In  In7  2  0.00000000  0.28101000  0.95447000  1.0
  In  In8  2  0.50000000  0.23372000  0.95024000  1.0
  In  In9  2  0.50000000  0.25000000  0.12354000  1.0
  Ge  Ge10  1  0.00000000  0.00000000  0.04118000  1.0
  Ge  Ge11  1  0.00000000  0.00000000  0.87094000  1.0
  Ge  Ge12  1  0.00000000  0.50000000  0.04118000  1.0
  Ge  Ge13  1  0.00000000  0.50000000  0.86848000  1.0
  Ge  Ge14  1  0.50000000  0.00000000  0.04118000  1.0
  Ge  Ge15  1  0.50000000  0.00000000  0.86822000  1.0
  Ge  Ge16  1  0.50000000  0.50000000  0.04118000  1.0
  Ge  Ge17  1  0.50000000  0.50000000  0.87065000  1.0
  C  C18  1  0.00000000  0.00000000  0.79854000  1.0
  O  O19  1  0.00000000  0.00000000  0.75451000  1.0
