# generated using pymatgen
data_Cr8In8Co16C
_symmetry_space_group_name_H-M   'P 1'
_cell_length_a   6.00915000
_cell_length_b   8.49821000
_cell_length_c   26.37370000
_cell_angle_alpha   90.00000000
_cell_angle_beta   90.00000000
_cell_angle_gamma   90.00000000
_symmetry_Int_Tables_number   1
_chemical_formula_structural   Cr8In8Co16C
_chemical_formula_sum   'Cr8 In8 Co16 C1'
_cell_volume   1346.82622902
_cell_formula_units_Z   1
loop_
 _symmetry_equiv_pos_site_id
 _symmetry_equiv_pos_as_xyz
  1  'x, y, z'
loop_
 _atom_site_type_symbol
 _atom_site_label
 _atom_site_symmetry_multiplicity
 _atom_site_fract_x
 _atom_site_fract_y
 _atom_site_fract_z
 _atom_site_occupancy
  Cr  Cr0  1  0.00000000  0.00000000  0.87917000  1.0
  Cr  Cr1  1  0.50000000  0.25000000  0.95972000  1.0
  Cr  Cr2  1  0.50000000  0.75000000  0.95972000  1.0
  Cr  Cr3  1  0.00000000  0.50000000  0.87917000  1.0
  Cr  Cr4  1  0.00000000  0.50000000  0.04483000  1.0
  Cr  Cr5  1  0.50000000  0.76493000  0.11927000  1.0
  Cr  Cr6  1  0.50000000  0.23507000  0.11927000  1.0
  Cr  Cr7  1  0.00000000  0.00000000  0.03471000  1.0
  In  In8  1  0.00000000  0.75000000  0.95972000  1.0
  In  In9  1  0.50000000  0.00000000  0.87917000  1.0
  In  In10  1  0.00000000  0.25000000  0.95972000  1.0
  In  In11  1  0.50000000  0.50000000  0.87917000  1.0
  In  In12  1  0.00000000  0.26795000  0.13777000  1.0
  In  In13  1  0.50000000  0.50000000  0.03786000  1.0
  In  In14  1  0.00000000  0.73205000  0.13777000  1.0
  In  In15  1  0.50000000  0.00000000  0.03823000  1.0
  Co  Co16  1  0.25000000  0.00000000  0.95972000  1.0
  Co  Co17  1  0.75000000  0.50000000  0.95972000  1.0
  Co  Co18  1  0.75000000  0.00000000  0.95972000  1.0
  Co  Co19  1  0.25000000  0.50000000  0.95972000  1.0
  Co  Co20  1  0.75000000  0.75000000  0.87917000  1.0
  Co  Co21  1  0.25000000  0.25000000  0.87917000  1.0
  Co  Co22  1  0.25000000  0.75000000  0.87917000  1.0
  Co  Co23  1  0.75000000  0.25000000  0.87917000  1.0
  Co  Co24  1  0.27852000  0.50000000  0.12052000  1.0
  Co  Co25  1  0.79266000  0.00000000  0.11572000  1.0
  Co  Co26  1  0.72148000  0.50000000  0.12052000  1.0
  Co  Co27  1  0.20734000  0.00000000  0.11572000  1.0
  Co  Co28  1  0.76794000  0.24722000  0.04522000  1.0
  Co  Co29  1  0.23206000  0.75278000  0.04522000  1.0
  Co  Co30  1  0.23206000  0.24722000  0.04522000  1.0
  Co  Co31  1  0.76794000  0.75278000  0.04522000  1.0
  C  C32  1  0.50000000  0.00000000  0.13608000  1.0
