# generated using pymatgen
data_Cr8In8Co16C
_symmetry_space_group_name_H-M   Pmm2
_cell_length_a   6.00915000
_cell_length_b   8.49821000
_cell_length_c   26.37370000
_cell_angle_alpha   90.00000000
_cell_angle_beta   90.00000000
_cell_angle_gamma   90.00000000
_symmetry_Int_Tables_number   25
_chemical_formula_structural   Cr8In8Co16C
_chemical_formula_sum   'Cr8 In8 Co16 C1'
_cell_volume   1346.82622902
_cell_formula_units_Z   1
loop_
 _symmetry_equiv_pos_site_id
 _symmetry_equiv_pos_as_xyz
  1  'x, y, z'
  2  '-x, -y, z'
  3  '-x, y, z'
  4  'x, -y, z'
loop_
 _atom_site_type_symbol
 _atom_site_label
 _atom_site_symmetry_multiplicity
 _atom_site_fract_x
 _atom_site_fract_y
 _atom_site_fract_z
 _atom_site_occupancy
  Cr  Cr0  2  0.50000000  0.23507000  0.11927000  1.0
  Cr  Cr1  2  0.50000000  0.25000000  0.95972000  1.0
  Cr  Cr2  1  0.00000000  0.00000000  0.03471000  1.0
  Cr  Cr3  1  0.00000000  0.00000000  0.87917000  1.0
  Cr  Cr4  1  0.00000000  0.50000000  0.04483000  1.0
  Cr  Cr5  1  0.00000000  0.50000000  0.87917000  1.0
  In  In6  2  0.00000000  0.25000000  0.95972000  1.0
  In  In7  2  0.00000000  0.26795000  0.13777000  1.0
  In  In8  1  0.50000000  0.00000000  0.03823000  1.0
  In  In9  1  0.50000000  0.00000000  0.87917000  1.0
  In  In10  1  0.50000000  0.50000000  0.03786000  1.0
  In  In11  1  0.50000000  0.50000000  0.87917000  1.0
  Co  Co12  4  0.23206000  0.24722000  0.04522000  1.0
  Co  Co13  4  0.25000000  0.25000000  0.87917000  1.0
  Co  Co14  2  0.20734000  0.00000000  0.11572000  1.0
  Co  Co15  2  0.25000000  0.00000000  0.95972000  1.0
  Co  Co16  2  0.25000000  0.50000000  0.95972000  1.0
  Co  Co17  2  0.27852000  0.50000000  0.12052000  1.0
  C  C18  1  0.50000000  0.00000000  0.13608000  1.0
