# generated using pymatgen
data_Y4Pd12C
_symmetry_space_group_name_H-M   'P 1'
_cell_length_a   8.33346000
_cell_length_b   5.89265000
_cell_length_c   24.41950000
_cell_angle_alpha   90.00000000
_cell_angle_beta   90.00000000
_cell_angle_gamma   90.00000000
_symmetry_Int_Tables_number   1
_chemical_formula_structural   Y4Pd12C
_chemical_formula_sum   'Y4 Pd12 C1'
_cell_volume   1199.14794906
_cell_formula_units_Z   1
loop_
 _symmetry_equiv_pos_site_id
 _symmetry_equiv_pos_as_xyz
  1  'x, y, z'
loop_
 _atom_site_type_symbol
 _atom_site_label
 _atom_site_symmetry_multiplicity
 _atom_site_fract_x
 _atom_site_fract_y
 _atom_site_fract_z
 _atom_site_occupancy
  Y  Y0  1  0.74145000  0.00735000  0.08609000  1.0
  Y  Y1  1  0.75000000  0.50000000  0.96984000  1.0
  Y  Y2  1  0.25855000  0.00735000  0.08609000  1.0
  Y  Y3  1  0.25000000  0.50000000  0.96984000  1.0
  Pd  Pd4  1  0.71290000  0.51867000  0.09102000  1.0
  Pd  Pd5  1  0.50000000  0.24508000  0.02671000  1.0
  Pd  Pd6  1  0.50000000  0.76791000  0.02233000  1.0
  Pd  Pd7  1  0.75000000  0.00000000  0.96984000  1.0
  Pd  Pd8  1  0.50000000  0.75000000  0.90951000  1.0
  Pd  Pd9  1  0.50000000  0.25000000  0.90951000  1.0
  Pd  Pd10  1  0.28710000  0.51867000  0.09102000  1.0
  Pd  Pd11  1  0.00000000  0.25749000  0.03602000  1.0
  Pd  Pd12  1  0.00000000  0.75515000  0.03603000  1.0
  Pd  Pd13  1  0.25000000  0.00000000  0.96984000  1.0
  Pd  Pd14  1  0.00000000  0.75000000  0.90951000  1.0
  Pd  Pd15  1  0.00000000  0.25000000  0.90951000  1.0
  C  C16  1  0.50000000  0.69280000  0.10337000  1.0
