# generated using pymatgen
data_Cu8Ni16Sn8CO
_symmetry_space_group_name_H-M   'P 1'
_cell_length_a   6.01864000
_cell_length_b   8.51164000
_cell_length_c   26.38370000
_cell_angle_alpha   90.00000000
_cell_angle_beta   90.00000000
_cell_angle_gamma   90.00000000
_symmetry_Int_Tables_number   1
_chemical_formula_structural   Cu8Ni16Sn8CO
_chemical_formula_sum   'Cu8 Ni16 Sn8 C1 O1'
_cell_volume   1351.59729550
_cell_formula_units_Z   1
loop_
 _symmetry_equiv_pos_site_id
 _symmetry_equiv_pos_as_xyz
  1  'x, y, z'
loop_
 _atom_site_type_symbol
 _atom_site_label
 _atom_site_symmetry_multiplicity
 _atom_site_fract_x
 _atom_site_fract_y
 _atom_site_fract_z
 _atom_site_occupancy
  Cu  Cu0  1  0.00000000  0.00000000  0.87902000  1.0
  Cu  Cu1  1  0.50000000  0.25000000  0.95967000  1.0
  Cu  Cu2  1  0.50000000  0.75000000  0.95967000  1.0
  Cu  Cu3  1  0.00000000  0.50000000  0.87902000  1.0
  Cu  Cu4  1  0.99912000  0.49997000  0.03686000  1.0
  Cu  Cu5  1  0.49761000  0.73732000  0.11972000  1.0
  Cu  Cu6  1  0.49757000  0.26273000  0.11971000  1.0
  Cu  Cu7  1  0.99709000  0.00009000  0.04468000  1.0
  Ni  Ni8  1  0.25000000  0.00000000  0.95967000  1.0
  Ni  Ni9  1  0.75000000  0.50000000  0.95967000  1.0
  Ni  Ni10  1  0.75000000  0.00000000  0.95967000  1.0
  Ni  Ni11  1  0.25000000  0.50000000  0.95967000  1.0
  Ni  Ni12  1  0.75000000  0.75000000  0.87902000  1.0
  Ni  Ni13  1  0.25000000  0.25000000  0.87902000  1.0
  Ni  Ni14  1  0.25000000  0.75000000  0.87902000  1.0
  Ni  Ni15  1  0.75000000  0.25000000  0.87902000  1.0
  Ni  Ni16  1  0.22602000  0.50002000  0.11551000  1.0
  Ni  Ni17  1  0.71799000  0.00004000  0.12341000  1.0
  Ni  Ni18  1  0.76928000  0.50002000  0.11550000  1.0
  Ni  Ni19  1  0.27516000  0.00001000  0.12232000  1.0
  Ni  Ni20  1  0.75898000  0.25000000  0.04213000  1.0
  Ni  Ni21  1  0.23804000  0.75070000  0.04232000  1.0
  Ni  Ni22  1  0.23804000  0.24928000  0.04230000  1.0
  Ni  Ni23  1  0.75897000  0.75004000  0.04214000  1.0
  Sn  Sn24  1  0.00000000  0.75000000  0.95967000  1.0
  Sn  Sn25  1  0.50000000  0.00000000  0.87902000  1.0
  Sn  Sn26  1  0.00000000  0.25000000  0.95967000  1.0
  Sn  Sn27  1  0.50000000  0.50000000  0.87902000  1.0
  Sn  Sn28  1  0.99752000  0.24336000  0.13053000  1.0
  Sn  Sn29  1  0.49812000  0.50001000  0.04025000  1.0
  Sn  Sn30  1  0.99749000  0.75669000  0.13053000  1.0
  Sn  Sn31  1  0.49945000  0.00001000  0.03829000  1.0
  C  C32  1  0.49311000  0.00005000  0.17495000  1.0
  O  O33  1  0.48895000  0.00005000  0.21963000  1.0
