# generated using pymatgen
data_Zn16Ag16CO
_symmetry_space_group_name_H-M   'P 1'
_cell_length_a   6.41951000
_cell_length_b   9.07856000
_cell_length_c   26.80890000
_cell_angle_alpha   90.00000000
_cell_angle_beta   90.00000000
_cell_angle_gamma   90.00000000
_symmetry_Int_Tables_number   1
_chemical_formula_structural   Zn16Ag16CO
_chemical_formula_sum   'Zn16 Ag16 C1 O1'
_cell_volume   1562.42019088
_cell_formula_units_Z   1
loop_
 _symmetry_equiv_pos_site_id
 _symmetry_equiv_pos_as_xyz
  1  'x, y, z'
loop_
 _atom_site_type_symbol
 _atom_site_label
 _atom_site_symmetry_multiplicity
 _atom_site_fract_x
 _atom_site_fract_y
 _atom_site_fract_z
 _atom_site_occupancy
  Zn  Zn0  1  0.00000000  0.25000000  0.87301000  1.0
  Zn  Zn1  1  0.00000000  0.00000000  0.95767000  1.0
  Zn  Zn2  1  0.00000000  0.24938000  0.04497000  1.0
  Zn  Zn3  1  0.00000000  0.00000000  0.12867000  1.0
  Zn  Zn4  1  0.00000000  0.75000000  0.87301000  1.0
  Zn  Zn5  1  0.00000000  0.50000000  0.95767000  1.0
  Zn  Zn6  1  0.00000000  0.75062000  0.04497000  1.0
  Zn  Zn7  1  0.00000000  0.50000000  0.13449000  1.0
  Zn  Zn8  1  0.50000000  0.25000000  0.87301000  1.0
  Zn  Zn9  1  0.50000000  0.00000000  0.95767000  1.0
  Zn  Zn10  1  0.50000000  0.25169000  0.04207000  1.0
  Zn  Zn11  1  0.50000000  0.00000000  0.13449000  1.0
  Zn  Zn12  1  0.50000000  0.75000000  0.87301000  1.0
  Zn  Zn13  1  0.50000000  0.50000000  0.95767000  1.0
  Zn  Zn14  1  0.50000000  0.74831000  0.04207000  1.0
  Zn  Zn15  1  0.50000000  0.50000000  0.13819000  1.0
  Ag  Ag16  1  0.75000000  0.00000000  0.87301000  1.0
  Ag  Ag17  1  0.75000000  0.25000000  0.95767000  1.0
  Ag  Ag18  1  0.74763000  0.00000000  0.04427000  1.0
  Ag  Ag19  1  0.74265000  0.25419000  0.12878000  1.0
  Ag  Ag20  1  0.75000000  0.50000000  0.87301000  1.0
  Ag  Ag21  1  0.75000000  0.75000000  0.95767000  1.0
  Ag  Ag22  1  0.75042000  0.50000000  0.04301000  1.0
  Ag  Ag23  1  0.74265000  0.74581000  0.12878000  1.0
  Ag  Ag24  1  0.25000000  0.00000000  0.87301000  1.0
  Ag  Ag25  1  0.25000000  0.25000000  0.95767000  1.0
  Ag  Ag26  1  0.25237000  0.00000000  0.04427000  1.0
  Ag  Ag27  1  0.25735000  0.25419000  0.12878000  1.0
  Ag  Ag28  1  0.25000000  0.50000000  0.87301000  1.0
  Ag  Ag29  1  0.25000000  0.75000000  0.95767000  1.0
  Ag  Ag30  1  0.24958000  0.50000000  0.04301000  1.0
  Ag  Ag31  1  0.25735000  0.74581000  0.12878000  1.0
  C  C32  1  0.00000000  0.00000000  0.20657000  1.0
  O  O33  1  0.00000000  0.00000000  0.24931000  1.0
