# generated using pymatgen
data_Li8Cu8Ge8Pd8C
_symmetry_space_group_name_H-M   'P 1'
_cell_length_a   8.54512000
_cell_length_b   6.04231000
_cell_length_c   26.40880000
_cell_angle_alpha   90.00000000
_cell_angle_beta   90.00000000
_cell_angle_gamma   90.00000000
_symmetry_Int_Tables_number   1
_chemical_formula_structural   Li8Cu8Ge8Pd8C
_chemical_formula_sum   'Li8 Cu8 Ge8 Pd8 C1'
_cell_volume   1363.54613424
_cell_formula_units_Z   1
loop_
 _symmetry_equiv_pos_site_id
 _symmetry_equiv_pos_as_xyz
  1  'x, y, z'
loop_
 _atom_site_type_symbol
 _atom_site_label
 _atom_site_symmetry_multiplicity
 _atom_site_fract_x
 _atom_site_fract_y
 _atom_site_fract_z
 _atom_site_occupancy
  Li  Li0  1  0.00000000  0.25000000  0.04045000  1.0
  Li  Li1  1  0.50000000  0.25000000  0.04045000  1.0
  Li  Li2  1  0.25000000  0.75000000  0.12134000  1.0
  Li  Li3  1  0.75000000  0.75000000  0.12134000  1.0
  Li  Li4  1  0.50000000  0.24075000  0.86412000  1.0
  Li  Li5  1  0.00000000  0.25232000  0.86085000  1.0
  Li  Li6  1  0.74621000  0.74902000  0.96399000  1.0
  Li  Li7  1  0.25379000  0.74902000  0.96399000  1.0
  Cu  Cu8  1  0.00000000  0.00000000  0.12134000  1.0
  Cu  Cu9  1  0.50000000  0.00000000  0.12134000  1.0
  Cu  Cu10  1  0.75000000  0.50000000  0.04045000  1.0
  Cu  Cu11  1  0.25000000  0.50000000  0.04045000  1.0
  Cu  Cu12  1  0.50000000  0.00673000  0.95224000  1.0
  Cu  Cu13  1  0.00000000  0.99068000  0.95548000  1.0
  Cu  Cu14  1  0.26109000  0.51583000  0.88516000  1.0
  Cu  Cu15  1  0.73891000  0.51583000  0.88516000  1.0
  Ge  Ge16  1  0.00000000  0.75000000  0.04045000  1.0
  Ge  Ge17  1  0.50000000  0.75000000  0.04045000  1.0
  Ge  Ge18  1  0.25000000  0.25000000  0.12134000  1.0
  Ge  Ge19  1  0.75000000  0.25000000  0.12134000  1.0
  Ge  Ge20  1  0.50000000  0.75660000  0.87016000  1.0
  Ge  Ge21  1  0.00000000  0.64887000  0.85329000  1.0
  Ge  Ge22  1  0.74878000  0.25359000  0.96007000  1.0
  Ge  Ge23  1  0.25122000  0.25359000  0.96007000  1.0
  Pd  Pd24  1  0.25000000  0.00000000  0.04045000  1.0
  Pd  Pd25  1  0.75000000  0.00000000  0.04045000  1.0
  Pd  Pd26  1  0.50000000  0.50000000  0.12134000  1.0
  Pd  Pd27  1  0.00000000  0.50000000  0.12134000  1.0
  Pd  Pd28  1  0.75405000  0.98132000  0.88596000  1.0
  Pd  Pd29  1  0.24595000  0.98132000  0.88596000  1.0
  Pd  Pd30  1  0.00000000  0.50707000  0.95536000  1.0
  Pd  Pd31  1  0.50000000  0.50179000  0.95493000  1.0
  C  C32  1  0.00000000  0.93598000  0.87972000  1.0
