# generated using pymatgen
data_Li8Cu8Ge8Pd8C
_symmetry_space_group_name_H-M   Pm
_cell_length_a   6.04231000
_cell_length_b   8.54512000
_cell_length_c   26.40880000
_cell_angle_alpha   90.00000000
_cell_angle_beta   90.00000000
_cell_angle_gamma   90.00000000
_symmetry_Int_Tables_number   6
_chemical_formula_structural   Li8Cu8Ge8Pd8C
_chemical_formula_sum   'Li8 Cu8 Ge8 Pd8 C1'
_cell_volume   1363.54613424
_cell_formula_units_Z   1
loop_
 _symmetry_equiv_pos_site_id
 _symmetry_equiv_pos_as_xyz
  1  'x, y, z'
  2  'x, -y, z'
loop_
 _atom_site_type_symbol
 _atom_site_label
 _atom_site_symmetry_multiplicity
 _atom_site_fract_x
 _atom_site_fract_y
 _atom_site_fract_z
 _atom_site_occupancy
  Li  Li0  2  0.74902000  0.25379000  0.03601000  1.0
  Li  Li1  2  0.75000000  0.25000000  0.87866000  1.0
  Li  Li2  1  0.24075000  0.50000000  0.13588000  1.0
  Li  Li3  1  0.25000000  0.00000000  0.95955000  1.0
  Li  Li4  1  0.25000000  0.50000000  0.95955000  1.0
  Li  Li5  1  0.25232000  0.00000000  0.13915000  1.0
  Cu  Cu6  2  0.50000000  0.25000000  0.95955000  1.0
  Cu  Cu7  2  0.51583000  0.26109000  0.11484000  1.0
  Cu  Cu8  1  0.00000000  0.00000000  0.87866000  1.0
  Cu  Cu9  1  0.00000000  0.50000000  0.87866000  1.0
  Cu  Cu10  1  0.00673000  0.50000000  0.04776000  1.0
  Cu  Cu11  1  0.99068000  0.00000000  0.04452000  1.0
  Ge  Ge12  2  0.25000000  0.25000000  0.87866000  1.0
  Ge  Ge13  2  0.25359000  0.25122000  0.03993000  1.0
  Ge  Ge14  1  0.64887000  0.00000000  0.14671000  1.0
  Ge  Ge15  1  0.75000000  0.00000000  0.95955000  1.0
  Ge  Ge16  1  0.75000000  0.50000000  0.95955000  1.0
  Ge  Ge17  1  0.75660000  0.50000000  0.12984000  1.0
  Pd  Pd18  2  0.00000000  0.25000000  0.95955000  1.0
  Pd  Pd19  2  0.98132000  0.24595000  0.11404000  1.0
  Pd  Pd20  1  0.50000000  0.00000000  0.87866000  1.0
  Pd  Pd21  1  0.50000000  0.50000000  0.87866000  1.0
  Pd  Pd22  1  0.50179000  0.50000000  0.04507000  1.0
  Pd  Pd23  1  0.50707000  0.00000000  0.04464000  1.0
  C  C24  1  0.93598000  0.00000000  0.12028000  1.0
