# generated using pymatgen
data_MnAlNi2
_symmetry_space_group_name_H-M   'P 1'
_cell_length_a   5.81764000
_cell_length_b   8.22738000
_cell_length_c   26.17050000
_cell_angle_alpha   90.00000000
_cell_angle_beta   90.00000000
_cell_angle_gamma   90.00000000
_symmetry_Int_Tables_number   1
_chemical_formula_structural   MnAlNi2
_chemical_formula_sum   'Mn8 Al8 Ni16'
_cell_volume   1252.62311048
_cell_formula_units_Z   8
loop_
 _symmetry_equiv_pos_site_id
 _symmetry_equiv_pos_as_xyz
  1  'x, y, z'
loop_
 _atom_site_type_symbol
 _atom_site_label
 _atom_site_symmetry_multiplicity
 _atom_site_fract_x
 _atom_site_fract_y
 _atom_site_fract_z
 _atom_site_occupancy
  Mn  Mn0  1  0.00000000  0.00000000  0.88211000  1.0
  Mn  Mn1  1  0.50000000  0.25000000  0.96070000  1.0
  Mn  Mn2  1  0.50000000  0.75000000  0.96070000  1.0
  Mn  Mn3  1  0.00000000  0.50000000  0.88211000  1.0
  Mn  Mn4  1  0.00000000  0.50000000  0.03828000  1.0
  Mn  Mn5  1  0.50000000  0.75001000  0.12115000  1.0
  Mn  Mn6  1  0.50000000  0.24999000  0.12115000  1.0
  Mn  Mn7  1  0.00000000  0.00000000  0.03830000  1.0
  Al  Al8  1  0.00000000  0.75000000  0.96070000  1.0
  Al  Al9  1  0.50000000  0.00000000  0.88211000  1.0
  Al  Al10  1  0.00000000  0.25000000  0.96070000  1.0
  Al  Al11  1  0.50000000  0.50000000  0.88211000  1.0
  Al  Al12  1  0.00000000  0.25000000  0.11875000  1.0
  Al  Al13  1  0.50000000  0.50000000  0.03939000  1.0
  Al  Al14  1  0.00000000  0.75000000  0.11875000  1.0
  Al  Al15  1  0.50000000  0.00000000  0.03939000  1.0
  Ni  Ni16  1  0.25000000  0.00000000  0.96070000  1.0
  Ni  Ni17  1  0.75000000  0.50000000  0.96070000  1.0
  Ni  Ni18  1  0.75000000  0.00000000  0.96070000  1.0
  Ni  Ni19  1  0.25000000  0.50000000  0.96070000  1.0
  Ni  Ni20  1  0.75000000  0.75000000  0.88211000  1.0
  Ni  Ni21  1  0.25000000  0.25000000  0.88211000  1.0
  Ni  Ni22  1  0.25000000  0.75000000  0.88211000  1.0
  Ni  Ni23  1  0.75000000  0.25000000  0.88211000  1.0
  Ni  Ni24  1  0.24011000  0.50000000  0.11378000  1.0
  Ni  Ni25  1  0.75983000  0.00000000  0.11380000  1.0
  Ni  Ni26  1  0.75989000  0.50000000  0.11378000  1.0
  Ni  Ni27  1  0.24017000  0.00000000  0.11380000  1.0
  Ni  Ni28  1  0.74822000  0.25003000  0.03941000  1.0
  Ni  Ni29  1  0.25178000  0.74997000  0.03941000  1.0
  Ni  Ni30  1  0.25178000  0.25003000  0.03941000  1.0
  Ni  Ni31  1  0.74822000  0.74997000  0.03941000  1.0
