# generated using pymatgen
data_MnAlNi2
_symmetry_space_group_name_H-M   Pmm2
_cell_length_a   5.81764000
_cell_length_b   8.22738000
_cell_length_c   26.17050000
_cell_angle_alpha   90.00000000
_cell_angle_beta   90.00000000
_cell_angle_gamma   90.00000000
_symmetry_Int_Tables_number   25
_chemical_formula_structural   MnAlNi2
_chemical_formula_sum   'Mn8 Al8 Ni16'
_cell_volume   1252.62311048
_cell_formula_units_Z   8
loop_
 _symmetry_equiv_pos_site_id
 _symmetry_equiv_pos_as_xyz
  1  'x, y, z'
  2  '-x, -y, z'
  3  'x, -y, z'
  4  '-x, y, z'
  5  'x, y+1/2, z'
  6  '-x, -y+1/2, z'
  7  'x, -y+1/2, z'
  8  '-x, y+1/2, z'
loop_
 _atom_site_type_symbol
 _atom_site_label
 _atom_site_symmetry_multiplicity
 _atom_site_fract_x
 _atom_site_fract_y
 _atom_site_fract_z
 _atom_site_occupancy
  Mn  Mn0  2  0.00000000  0.00000000  0.03830000  1.0
  Mn  Mn1  2  0.00000000  0.00000000  0.88211000  1.0
  Mn  Mn2  2  0.50000000  0.24999000  0.12115000  1.0
  Mn  Mn3  2  0.50000000  0.25000000  0.96070000  1.0
  Al  Al4  2  0.00000000  0.25000000  0.11875000  1.0
  Al  Al5  2  0.00000000  0.25000000  0.96070000  1.0
  Al  Al6  2  0.50000000  0.00000000  0.03939000  1.0
  Al  Al7  2  0.50000000  0.00000000  0.88211000  1.0
  Ni  Ni8  4  0.24011000  0.50000000  0.11378000  1.0
  Ni  Ni9  4  0.25000000  0.25000000  0.88211000  1.0
  Ni  Ni10  4  0.25000000  0.50000000  0.96070000  1.0
  Ni  Ni11  4  0.25178000  0.25003000  0.03941000  1.0
