# generated using pymatgen
data_Li24Sb8C
_symmetry_space_group_name_H-M   Pm
_cell_length_a   6.56971000
_cell_length_b   9.29097000
_cell_length_c   26.96820000
_cell_angle_alpha   90.00000000
_cell_angle_beta   90.00000000
_cell_angle_gamma   90.00000000
_symmetry_Int_Tables_number   6
_chemical_formula_structural   Li24Sb8C
_chemical_formula_sum   'Li24 Sb8 C1'
_cell_volume   1646.11138049
_cell_formula_units_Z   1
loop_
 _symmetry_equiv_pos_site_id
 _symmetry_equiv_pos_as_xyz
  1  'x, y, z'
  2  'x, -y, z'
loop_
 _atom_site_type_symbol
 _atom_site_label
 _atom_site_symmetry_multiplicity
 _atom_site_fract_x
 _atom_site_fract_y
 _atom_site_fract_z
 _atom_site_occupancy
  Li  Li0  2  0.25000000  0.25000000  0.95694000  1.0
  Li  Li1  2  0.26671000  0.22542000  0.13691000  1.0
  Li  Li2  2  0.48997000  0.25973000  0.04417000  1.0
  Li  Li3  2  0.50000000  0.25000000  0.87081000  1.0
  Li  Li4  2  0.73555000  0.27544000  0.12817000  1.0
  Li  Li5  2  0.75000000  0.25000000  0.95694000  1.0
  Li  Li6  1  0.00000000  0.00000000  0.95694000  1.0
  Li  Li7  1  0.00000000  0.50000000  0.95694000  1.0
  Li  Li8  1  0.04597000  0.50000000  0.11588000  1.0
  Li  Li9  1  0.23659000  0.00000000  0.05476000  1.0
  Li  Li10  1  0.25000000  0.00000000  0.87081000  1.0
  Li  Li11  1  0.25000000  0.50000000  0.87081000  1.0
  Li  Li12  1  0.25123000  0.50000000  0.03653000  1.0
  Li  Li13  1  0.74553000  0.50000000  0.04316000  1.0
  Li  Li14  1  0.75000000  0.00000000  0.87081000  1.0
  Li  Li15  1  0.75000000  0.50000000  0.87081000  1.0
  Li  Li16  1  0.75767000  0.00000000  0.03885000  1.0
  Li  Li17  1  0.96366000  0.00000000  0.13129000  1.0
  Sb  Sb18  2  0.00000000  0.25000000  0.87081000  1.0
  Sb  Sb19  2  0.99932000  0.25409000  0.04582000  1.0
  Sb  Sb20  1  0.47491000  0.50000000  0.12562000  1.0
  Sb  Sb21  1  0.50000000  0.00000000  0.95694000  1.0
  Sb  Sb22  1  0.50000000  0.50000000  0.95694000  1.0
  Sb  Sb23  1  0.56020000  0.00000000  0.13317000  1.0
  C  C24  1  0.24963000  0.00000000  0.14302000  1.0
