# generated using pymatgen
data_LiCaGePd
_symmetry_space_group_name_H-M   P1
_cell_length_a   6.62107000
_cell_length_b   6.62107000
_cell_length_c   24.96580000
_cell_angle_alpha   90.00000000
_cell_angle_beta   90.00000000
_cell_angle_gamma   90.00000000
_symmetry_Int_Tables_number   1
_chemical_formula_structural   LiCaGePd
_chemical_formula_sum   'Li4 Ca4 Ge4 Pd4'
_cell_volume   1094.46491960
_cell_formula_units_Z   4
loop_
 _symmetry_equiv_pos_site_id
 _symmetry_equiv_pos_as_xyz
  1  'x, y, z'
loop_
 _atom_site_type_symbol
 _atom_site_label
 _atom_site_symmetry_multiplicity
 _atom_site_fract_x
 _atom_site_fract_y
 _atom_site_fract_z
 _atom_site_occupancy
  Li  Li0  1  0.25000000  0.75000000  0.96685000  1.0
  Li  Li1  1  0.25004000  0.25039000  0.12029000  1.0
  Li  Li2  1  0.74989000  0.74959000  0.12030000  1.0
  Li  Li3  1  0.75000000  0.25000000  0.96685000  1.0
  Ca  Ca4  1  0.00000000  0.00000000  0.90055000  1.0
  Ca  Ca5  1  0.00003000  0.49992000  0.03420000  1.0
  Ca  Ca6  1  0.50000000  0.50000000  0.90055000  1.0
  Ca  Ca7  1  0.50009000  0.99994000  0.03424000  1.0
  Ge  Ge8  1  0.00000000  0.50000000  0.90055000  1.0
  Ge  Ge9  1  0.50000000  0.00000000  0.90055000  1.0
  Ge  Ge10  1  0.50024000  0.49989000  0.04083000  1.0
  Ge  Ge11  1  0.99976000  0.00008000  0.04083000  1.0
  Pd  Pd12  1  0.24992000  0.74999000  0.09312000  1.0
  Pd  Pd13  1  0.25000000  0.25000000  0.96685000  1.0
  Pd  Pd14  1  0.75000000  0.75000000  0.96685000  1.0
  Pd  Pd15  1  0.75005000  0.25020000  0.09343000  1.0
