# generated using pymatgen
data_Li8Mg8Pd8Pb8C
_symmetry_space_group_name_H-M   'P 1'
_cell_length_a   9.45090000
_cell_length_b   6.68280000
_cell_length_c   27.08820000
_cell_angle_alpha   90.00000000
_cell_angle_beta   90.00000000
_cell_angle_gamma   90.00000000
_symmetry_Int_Tables_number   1
_chemical_formula_structural   Li8Mg8Pd8Pb8C
_chemical_formula_sum   'Li8 Mg8 Pd8 Pb8 C1'
_cell_volume   1710.84938949
_cell_formula_units_Z   1
loop_
 _symmetry_equiv_pos_site_id
 _symmetry_equiv_pos_as_xyz
  1  'x, y, z'
loop_
 _atom_site_type_symbol
 _atom_site_label
 _atom_site_symmetry_multiplicity
 _atom_site_fract_x
 _atom_site_fract_y
 _atom_site_fract_z
 _atom_site_occupancy
  Li  Li0  1  0.00000000  0.00000000  0.13084000  1.0
  Li  Li1  1  0.50000000  0.00000000  0.13084000  1.0
  Li  Li2  1  0.75000000  0.50000000  0.04361000  1.0
  Li  Li3  1  0.25000000  0.50000000  0.04361000  1.0
  Li  Li4  1  0.50000000  0.01698000  0.95563000  1.0
  Li  Li5  1  0.00000000  0.04253000  0.94153000  1.0
  Li  Li6  1  0.26334000  0.46067000  0.86589000  1.0
  Li  Li7  1  0.73666000  0.46067000  0.86589000  1.0
  Mg  Mg8  1  0.00000000  0.75000000  0.04361000  1.0
  Mg  Mg9  1  0.50000000  0.75000000  0.04361000  1.0
  Mg  Mg10  1  0.25000000  0.25000000  0.13084000  1.0
  Mg  Mg11  1  0.75000000  0.25000000  0.13084000  1.0
  Mg  Mg12  1  0.50000000  0.77200000  0.87108000  1.0
  Mg  Mg13  1  0.00000000  0.70820000  0.87094000  1.0
  Mg  Mg14  1  0.74412000  0.25860000  0.95723000  1.0
  Mg  Mg15  1  0.25588000  0.25860000  0.95723000  1.0
  Pd  Pd16  1  0.25000000  0.00000000  0.04361000  1.0
  Pd  Pd17  1  0.75000000  0.00000000  0.04361000  1.0
  Pd  Pd18  1  0.50000000  0.50000000  0.13084000  1.0
  Pd  Pd19  1  0.00000000  0.50000000  0.13084000  1.0
  Pd  Pd20  1  0.78247000  0.04428000  0.87279000  1.0
  Pd  Pd21  1  0.21753000  0.04428000  0.87279000  1.0
  Pd  Pd22  1  0.00000000  0.48986000  0.95696000  1.0
  Pd  Pd23  1  0.50000000  0.49888000  0.95083000  1.0
  Pb  Pb24  1  0.00000000  0.25000000  0.04361000  1.0
  Pb  Pb25  1  0.50000000  0.25000000  0.04361000  1.0
  Pb  Pb26  1  0.25000000  0.75000000  0.13084000  1.0
  Pb  Pb27  1  0.75000000  0.75000000  0.13084000  1.0
  Pb  Pb28  1  0.50000000  0.22021000  0.85459000  1.0
  Pb  Pb29  1  0.00000000  0.30265000  0.81722000  1.0
  Pb  Pb30  1  0.75314000  0.75347000  0.95253000  1.0
  Pb  Pb31  1  0.24686000  0.75347000  0.95253000  1.0
  C  C32  1  0.00000000  0.02034000  0.86131000  1.0
