# generated using pymatgen
data_Al8V8Co16C
_symmetry_space_group_name_H-M   Pm
_cell_length_a   5.76795000
_cell_length_b   8.15711000
_cell_length_c   26.11780000
_cell_angle_alpha   90.00000000
_cell_angle_beta   90.00000000
_cell_angle_gamma   90.00000000
_symmetry_Int_Tables_number   6
_chemical_formula_structural   Al8V8Co16C
_chemical_formula_sum   'Al8 V8 Co16 C1'
_cell_volume   1228.83733499
_cell_formula_units_Z   1
loop_
 _symmetry_equiv_pos_site_id
 _symmetry_equiv_pos_as_xyz
  1  'x, y, z'
  2  'x, -y, z'
loop_
 _atom_site_type_symbol
 _atom_site_label
 _atom_site_symmetry_multiplicity
 _atom_site_fract_x
 _atom_site_fract_y
 _atom_site_fract_z
 _atom_site_occupancy
  Al  Al0  2  0.00000000  0.24999000  0.88288000  1.0
  Al  Al1  2  0.00481000  0.24920000  0.03820000  1.0
  Al  Al2  1  0.49424000  0.50000000  0.12241000  1.0
  Al  Al3  1  0.50000000  0.00000000  0.96096000  1.0
  Al  Al4  1  0.50000000  0.50000000  0.96096000  1.0
  Al  Al5  1  0.55085000  0.00000000  0.13063000  1.0
  V  V6  2  0.50000000  0.24999000  0.88288000  1.0
  V  V7  2  0.50074000  0.25105000  0.04183000  1.0
  V  V8  1  0.00000000  0.00000000  0.96096000  1.0
  V  V9  1  0.00000000  0.50000000  0.96096000  1.0
  V  V10  1  0.95721000  0.00000000  0.11032000  1.0
  V  V11  1  0.99705000  0.50000000  0.11620000  1.0
  Co  Co12  2  0.25000000  0.24999000  0.96096000  1.0
  Co  Co13  2  0.25895000  0.23478000  0.11456000  1.0
  Co  Co14  2  0.75000000  0.25001000  0.96096000  1.0
  Co  Co15  2  0.75361000  0.25878000  0.11067000  1.0
  Co  Co16  1  0.24881000  0.50000000  0.04031000  1.0
  Co  Co17  1  0.25000000  0.00000000  0.88288000  1.0
  Co  Co18  1  0.25000000  0.50000000  0.88288000  1.0
  Co  Co19  1  0.25935000  0.00000000  0.03944000  1.0
  Co  Co20  1  0.73894000  0.00000000  0.03469000  1.0
  Co  Co21  1  0.75000000  0.00000000  0.88288000  1.0
  Co  Co22  1  0.75000000  0.50000000  0.88288000  1.0
  Co  Co23  1  0.75228000  0.50000000  0.03994000  1.0
  C  C24  1  0.23214000  0.00000000  0.14225000  1.0
