# generated using pymatgen
data_Li16Ag8Pb8CO
_symmetry_space_group_name_H-M   'P 1'
_cell_length_a   9.68063000
_cell_length_b   6.84524000
_cell_length_c   27.26050000
_cell_angle_alpha   90.00000000
_cell_angle_beta   90.00000000
_cell_angle_gamma   90.00000000
_symmetry_Int_Tables_number   1
_chemical_formula_structural   Li16Ag8Pb8CO
_chemical_formula_sum   'Li16 Ag8 Pb8 C1 O1'
_cell_volume   1806.45071833
_cell_formula_units_Z   1
loop_
 _symmetry_equiv_pos_site_id
 _symmetry_equiv_pos_as_xyz
  1  'x, y, z'
loop_
 _atom_site_type_symbol
 _atom_site_label
 _atom_site_symmetry_multiplicity
 _atom_site_fract_x
 _atom_site_fract_y
 _atom_site_fract_z
 _atom_site_occupancy
  Li  Li0  1  0.50000000  1.00000000  0.04439000  1.0
  Li  Li1  1  0.75000000  0.50000000  0.13317000  1.0
  Li  Li2  1  0.00000000  1.00000000  0.04439000  1.0
  Li  Li3  1  0.25000000  0.50000000  0.13317000  1.0
  Li  Li4  1  0.00000000  0.25000000  0.13317000  1.0
  Li  Li5  1  0.50000000  0.25000000  0.13317000  1.0
  Li  Li6  1  0.25000000  0.75000000  0.04439000  1.0
  Li  Li7  1  0.75000000  0.75000000  0.04439000  1.0
  Li  Li8  1  0.00000000  0.02031000  0.87187000  1.0
  Li  Li9  1  0.24843000  0.50881000  0.96109000  1.0
  Li  Li10  1  0.50000000  0.01856000  0.87131000  1.0
  Li  Li11  1  0.75157000  0.50881000  0.96109000  1.0
  Li  Li12  1  0.50000000  0.27742000  0.94982000  1.0
  Li  Li13  1  0.00000000  0.27011000  0.95179000  1.0
  Li  Li14  1  0.75132000  0.72194000  0.87081000  1.0
  Li  Li15  1  0.24868000  0.72194000  0.87081000  1.0
  Ag  Ag16  1  0.75000000  0.25000000  0.04439000  1.0
  Ag  Ag17  1  0.25000000  0.25000000  0.04439000  1.0
  Ag  Ag18  1  0.50000000  0.75000000  0.13317000  1.0
  Ag  Ag19  1  0.00000000  0.75000000  0.13317000  1.0
  Ag  Ag20  1  0.25579000  0.28337000  0.87830000  1.0
  Ag  Ag21  1  0.74421000  0.28337000  0.87830000  1.0
  Ag  Ag22  1  0.00000000  0.72575000  0.94665000  1.0
  Ag  Ag23  1  0.50000000  0.72276000  0.94678000  1.0
  Pb  Pb24  1  0.75000000  0.00000000  0.13317000  1.0
  Pb  Pb25  1  0.00000000  0.50000000  0.04439000  1.0
  Pb  Pb26  1  0.50000000  0.50000000  0.04439000  1.0
  Pb  Pb27  1  0.25000000  0.00000000  0.13317000  1.0
  Pb  Pb28  1  0.24944000  0.99118000  0.95589000  1.0
  Pb  Pb29  1  0.50000000  0.51033000  0.84913000  1.0
  Pb  Pb30  1  0.00000000  0.49534000  0.85256000  1.0
  Pb  Pb31  1  0.75056000  0.99118000  0.95589000  1.0
  C  C32  1  0.00000000  0.99629000  0.79592000  1.0
  O  O33  1  0.00000000  0.99449000  0.75395000  1.0
