# generated using pymatgen
data_Li16Ag8Pb8CO
_symmetry_space_group_name_H-M   Pm
_cell_length_a   6.84524000
_cell_length_b   9.68063000
_cell_length_c   27.26050000
_cell_angle_alpha   90.00000000
_cell_angle_beta   90.00000000
_cell_angle_gamma   90.00000000
_symmetry_Int_Tables_number   6
_chemical_formula_structural   Li16Ag8Pb8CO
_chemical_formula_sum   'Li16 Ag8 Pb8 C1 O1'
_cell_volume   1806.45071833
_cell_formula_units_Z   1
loop_
 _symmetry_equiv_pos_site_id
 _symmetry_equiv_pos_as_xyz
  1  'x, y, z'
  2  'x, -y, z'
loop_
 _atom_site_type_symbol
 _atom_site_label
 _atom_site_symmetry_multiplicity
 _atom_site_fract_x
 _atom_site_fract_y
 _atom_site_fract_z
 _atom_site_occupancy
  Li  Li0  2  0.50000000  0.25000000  0.86683000  1.0
  Li  Li1  2  0.50881000  0.24843000  0.03891000  1.0
  Li  Li2  2  0.72194000  0.24868000  0.12919000  1.0
  Li  Li3  2  0.75000000  0.25000000  0.95561000  1.0
  Li  Li4  1  -0.00000000  0.50000000  0.95561000  1.0
  Li  Li5  1  -0.00000000  0.00000000  0.95561000  1.0
  Li  Li6  1  0.01856000  0.50000000  0.12869000  1.0
  Li  Li7  1  0.02031000  0.00000000  0.12813000  1.0
  Li  Li8  1  0.25000000  0.00000000  0.86683000  1.0
  Li  Li9  1  0.25000000  0.50000000  0.86683000  1.0
  Li  Li10  1  0.27011000  0.00000000  0.04821000  1.0
  Li  Li11  1  0.27742000  0.50000000  0.05018000  1.0
  Ag  Ag12  2  0.25000000  0.25000000  0.95561000  1.0
  Ag  Ag13  2  0.28337000  0.25579000  0.12170000  1.0
  Ag  Ag14  1  0.72276000  0.50000000  0.05322000  1.0
  Ag  Ag15  1  0.72575000  0.00000000  0.05335000  1.0
  Ag  Ag16  1  0.75000000  0.00000000  0.86683000  1.0
  Ag  Ag17  1  0.75000000  0.50000000  0.86683000  1.0
  Pb  Pb18  2  0.00000000  0.25000000  0.86683000  1.0
  Pb  Pb19  2  0.99118000  0.24944000  0.04411000  1.0
  Pb  Pb20  1  0.49534000  0.00000000  0.14744000  1.0
  Pb  Pb21  1  0.50000000  0.00000000  0.95561000  1.0
  Pb  Pb22  1  0.50000000  0.50000000  0.95561000  1.0
  Pb  Pb23  1  0.51033000  0.50000000  0.15087000  1.0
  C  C24  1  0.99629000  0.00000000  0.20408000  1.0
  O  O25  1  0.99449000  0.00000000  0.24605000  1.0
