# generated using pymatgen
data_Y16Rh16CO
_symmetry_space_group_name_H-M   'P 1'
_cell_length_a   6.88160000
_cell_length_b   9.73205000
_cell_length_c   27.29900000
_cell_angle_alpha   90.00000000
_cell_angle_beta   90.00000000
_cell_angle_gamma   90.00000000
_symmetry_Int_Tables_number   1
_chemical_formula_structural   Y16Rh16CO
_chemical_formula_sum   'Y16 Rh16 C1 O1'
_cell_volume   1828.27068307
_cell_formula_units_Z   1
loop_
 _symmetry_equiv_pos_site_id
 _symmetry_equiv_pos_as_xyz
  1  'x, y, z'
loop_
 _atom_site_type_symbol
 _atom_site_label
 _atom_site_symmetry_multiplicity
 _atom_site_fract_x
 _atom_site_fract_y
 _atom_site_fract_z
 _atom_site_occupancy
  Y  Y0  1  0.00000000  0.25000000  0.86631000  1.0
  Y  Y1  1  0.00000000  0.00000000  0.95544000  1.0
  Y  Y2  1  0.00000000  0.25000000  0.04617000  1.0
  Y  Y3  1  0.00000000  0.50000000  0.13738000  1.0
  Y  Y4  1  0.00000000  0.75000000  0.86631000  1.0
  Y  Y5  1  0.00000000  0.50000000  0.95544000  1.0
  Y  Y6  1  0.00000000  0.75000000  0.04617000  1.0
  Y  Y7  1  0.00000000  0.00000000  0.13796000  1.0
  Y  Y8  1  0.50000000  0.25000000  0.86631000  1.0
  Y  Y9  1  0.50000000  0.00000000  0.95544000  1.0
  Y  Y10  1  0.50000000  0.24988000  0.04616000  1.0
  Y  Y11  1  0.50000000  0.50000000  0.13764000  1.0
  Y  Y12  1  0.50000000  0.75000000  0.86631000  1.0
  Y  Y13  1  0.50000000  0.50000000  0.95544000  1.0
  Y  Y14  1  0.50000000  0.75012000  0.04616000  1.0
  Y  Y15  1  0.50000000  0.00000000  0.13775000  1.0
  Rh  Rh16  1  0.75000000  0.00000000  0.86631000  1.0
  Rh  Rh17  1  0.75000000  0.25000000  0.95544000  1.0
  Rh  Rh18  1  0.74820000  0.00000000  0.04782000  1.0
  Rh  Rh19  1  0.74862000  0.25204000  0.12874000  1.0
  Rh  Rh20  1  0.75000000  0.50000000  0.86631000  1.0
  Rh  Rh21  1  0.75000000  0.75000000  0.95544000  1.0
  Rh  Rh22  1  0.74984000  0.50000000  0.04830000  1.0
  Rh  Rh23  1  0.74862000  0.74796000  0.12874000  1.0
  Rh  Rh24  1  0.25000000  0.00000000  0.86631000  1.0
  Rh  Rh25  1  0.25000000  0.25000000  0.95544000  1.0
  Rh  Rh26  1  0.25180000  0.00000000  0.04782000  1.0
  Rh  Rh27  1  0.25138000  0.25204000  0.12874000  1.0
  Rh  Rh28  1  0.25000000  0.50000000  0.86631000  1.0
  Rh  Rh29  1  0.25000000  0.75000000  0.95544000  1.0
  Rh  Rh30  1  0.25016000  0.50000000  0.04830000  1.0
  Rh  Rh31  1  0.25138000  0.74796000  0.12874000  1.0
  C  C32  1  0.00000000  0.00000000  0.23151000  1.0
  O  O33  1  0.00000000  0.00000000  0.27350000  1.0
