# generated using pymatgen
data_LiInAg2
_symmetry_space_group_name_H-M   Pm
_cell_length_a   9.53179000
_cell_length_b   6.74000000
_cell_length_c   27.14880000
_cell_angle_alpha   90.00000000
_cell_angle_beta   90.00000000
_cell_angle_gamma   90.00000000
_symmetry_Int_Tables_number   6
_chemical_formula_structural   LiInAg2
_chemical_formula_sum   'Li8 In8 Ag16'
_cell_volume   1744.15469077
_cell_formula_units_Z   8
loop_
 _symmetry_equiv_pos_site_id
 _symmetry_equiv_pos_as_xyz
  1  'x, y, z'
  2  'x, -y, z'
loop_
 _atom_site_type_symbol
 _atom_site_label
 _atom_site_symmetry_multiplicity
 _atom_site_fract_x
 _atom_site_fract_y
 _atom_site_fract_z
 _atom_site_occupancy
  Li  Li0  1  0.00000000  0.00000000  0.03845000  1.0
  Li  Li1  1  0.00000000  0.00000000  0.86834000  1.0
  Li  Li2  1  0.24999000  0.50000000  0.12862000  1.0
  Li  Li3  1  0.25000000  0.50000000  0.95611000  1.0
  Li  Li4  1  0.50000000  0.00000000  0.03846000  1.0
  Li  Li5  1  0.50000000  0.00000000  0.86834000  1.0
  Li  Li6  1  0.75000000  0.50000000  0.12861000  1.0
  Li  Li7  1  0.75000000  0.50000000  0.95611000  1.0
  In  In8  1  0.00000000  0.50000000  0.86834000  1.0
  In  In9  1  0.24999000  0.00000000  0.14688000  1.0
  In  In10  1  0.25000000  0.00000000  0.95611000  1.0
  In  In11  1  0.50000000  0.50000000  0.86834000  1.0
  In  In12  1  0.50003000  0.50000000  0.04190000  1.0
  In  In13  1  0.75000000  0.00000000  0.95611000  1.0
  In  In14  1  0.75001000  0.00000000  0.14689000  1.0
  In  In15  1  0.99992000  0.50000000  0.04169000  1.0
  Ag  Ag16  2  0.00000000  0.23130000  0.12450000  1.0
  Ag  Ag17  2  0.00000000  0.25000000  0.95611000  1.0
  Ag  Ag18  2  0.25000000  0.23873000  0.04731000  1.0
  Ag  Ag19  2  0.25000000  0.25000000  0.86834000  1.0
  Ag  Ag20  2  0.49999000  0.23104000  0.12459000  1.0
  Ag  Ag21  2  0.50000000  0.25000000  0.95611000  1.0
  Ag  Ag22  2  0.74999000  0.23873000  0.04731000  1.0
  Ag  Ag23  2  0.75000000  0.25000000  0.86834000  1.0
