# generated using pymatgen
data_Li8Al8Ag16C
_symmetry_space_group_name_H-M   'P 1'
_cell_length_a   6.40528000
_cell_length_b   9.05843000
_cell_length_c   26.79380000
_cell_angle_alpha   90.00000000
_cell_angle_beta   90.00000000
_cell_angle_gamma   90.00000000
_symmetry_Int_Tables_number   1
_chemical_formula_structural   Li8Al8Ag16C
_chemical_formula_sum   'Li8 Al8 Ag16 C1'
_cell_volume   1554.62398264
_cell_formula_units_Z   1
loop_
 _symmetry_equiv_pos_site_id
 _symmetry_equiv_pos_as_xyz
  1  'x, y, z'
loop_
 _atom_site_type_symbol
 _atom_site_label
 _atom_site_symmetry_multiplicity
 _atom_site_fract_x
 _atom_site_fract_y
 _atom_site_fract_z
 _atom_site_occupancy
  Li  Li0  1  0.00000000  0.00000000  0.87322000  1.0
  Li  Li1  1  0.50000000  0.25000000  0.95774000  1.0
  Li  Li2  1  0.50000000  0.75000000  0.95774000  1.0
  Li  Li3  1  0.00000000  0.50000000  0.87322000  1.0
  Li  Li4  1  0.00000000  0.50000000  0.04134000  1.0
  Li  Li5  1  0.50000000  0.76640000  0.12854000  1.0
  Li  Li6  1  0.50000000  0.23360000  0.12854000  1.0
  Li  Li7  1  0.00000000  0.00000000  0.04589000  1.0
  Al  Al8  1  0.00000000  0.75000000  0.95774000  1.0
  Al  Al9  1  0.50000000  0.00000000  0.87322000  1.0
  Al  Al10  1  0.00000000  0.25000000  0.95774000  1.0
  Al  Al11  1  0.50000000  0.50000000  0.87322000  1.0
  Al  Al12  1  0.00000000  0.25851000  0.13033000  1.0
  Al  Al13  1  0.50000000  0.50000000  0.04528000  1.0
  Al  Al14  1  0.00000000  0.74149000  0.13033000  1.0
  Al  Al15  1  0.50000000  0.00000000  0.03649000  1.0
  Ag  Ag16  1  0.25000000  0.00000000  0.95774000  1.0
  Ag  Ag17  1  0.75000000  0.50000000  0.95774000  1.0
  Ag  Ag18  1  0.75000000  0.00000000  0.95774000  1.0
  Ag  Ag19  1  0.25000000  0.50000000  0.95774000  1.0
  Ag  Ag20  1  0.75000000  0.75000000  0.87322000  1.0
  Ag  Ag21  1  0.25000000  0.25000000  0.87322000  1.0
  Ag  Ag22  1  0.25000000  0.75000000  0.87322000  1.0
  Ag  Ag23  1  0.75000000  0.25000000  0.87322000  1.0
  Ag  Ag24  1  0.24628000  0.50000000  0.12646000  1.0
  Ag  Ag25  1  0.79174000  0.00000000  0.14296000  1.0
  Ag  Ag26  1  0.75372000  0.50000000  0.12646000  1.0
  Ag  Ag27  1  0.20826000  0.00000000  0.14296000  1.0
  Ag  Ag28  1  0.75603000  0.25480000  0.04283000  1.0
  Ag  Ag29  1  0.24397000  0.74520000  0.04283000  1.0
  Ag  Ag30  1  0.24397000  0.25480000  0.04283000  1.0
  Ag  Ag31  1  0.75603000  0.74520000  0.04283000  1.0
  C  C32  1  0.50000000  0.00000000  0.10746000  1.0
