data_image0
_chemical_formula_structural       Li12Pb4CO
_chemical_formula_sum              "Li12 Pb4 C1 O1"
_cell_length_a       6.73051
_cell_length_b       6.73051
_cell_length_c       25.0479
_cell_angle_alpha    90
_cell_angle_beta     90
_cell_angle_gamma    90

_space_group_name_H-M_alt    "P 1"
_space_group_IT_number       1

loop_
  _space_group_symop_operation_xyz
  'x, y, z'

loop_
  _atom_site_type_symbol
  _atom_site_label
  _atom_site_symmetry_multiplicity
  _atom_site_fract_x
  _atom_site_fract_y
  _atom_site_fract_z
  _atom_site_occupancy
  Li  Li1       1.0  0.25000  0.25000  0.03359  1.0000
  Li  Li2       1.0  0.75000  0.75000  0.89924  1.0000
  Li  Li3       1.0  0.75000  0.25000  0.03359  1.0000
  Li  Li4       1.0  0.25000  0.75000  0.89924  1.0000
  Li  Li5       1.0  0.75000  0.75000  0.03359  1.0000
  Li  Li6       1.0  0.25000  0.25000  0.89924  1.0000
  Li  Li7       1.0  0.25000  0.75000  0.03359  1.0000
  Li  Li8       1.0  0.75000  0.25000  0.89924  1.0000
  Li  Li9       1.0  0.00000  0.00000  0.96641  1.0000
  Li  Li10      1.0  0.50000  0.00000  0.10076  1.0000
  Li  Li11      1.0  0.00000  0.50000  0.10076  1.0000
  Li  Li12      1.0  0.50000  0.50000  0.96641  1.0000
  Pb  Pb1       1.0  0.00000  0.00000  0.10076  1.0000
  Pb  Pb2       1.0  0.50000  0.50000  0.10076  1.0000
  Pb  Pb3       1.0  0.50000  0.00000  0.96641  1.0000
  Pb  Pb4       1.0  0.00000  0.50000  0.96641  1.0000
  C   C1        1.0  0.00000  0.00000  0.17662  1.0000
  O   O1        1.0  0.00000  0.00000  0.22253  1.0000
