# generated using pymatgen
data_Sc4Ga4Ge4Pd4CO
_symmetry_space_group_name_H-M   Pm
_cell_length_a   5.81182000
_cell_length_b   8.08666000
_cell_length_c   24.34090000
_cell_angle_alpha   90.00000000
_cell_angle_beta   90.00000000
_cell_angle_gamma   90.00000000
_symmetry_Int_Tables_number   6
_chemical_formula_structural   Sc4Ga4Ge4Pd4CO
_chemical_formula_sum   'Sc4 Ga4 Ge4 Pd4 C1 O1'
_cell_volume   1143.97878629
_cell_formula_units_Z   1
loop_
 _symmetry_equiv_pos_site_id
 _symmetry_equiv_pos_as_xyz
  1  'x, y, z'
  2  'x, -y, z'
loop_
 _atom_site_type_symbol
 _atom_site_label
 _atom_site_symmetry_multiplicity
 _atom_site_fract_x
 _atom_site_fract_y
 _atom_site_fract_z
 _atom_site_occupancy
  Sc  Sc0  1  0.15225000  0.00000000  0.08761000  1.0
  Sc  Sc1  1  0.15434000  0.50000000  0.08480000  1.0
  Sc  Sc2  1  0.72730000  0.00000000  0.97028000  1.0
  Sc  Sc3  1  0.72730000  0.50000000  0.97028000  1.0
  Ga  Ga4  2  0.00000000  0.24999000  0.91083000  1.0
  Ga  Ga5  2  0.42808000  0.24859000  0.02770000  1.0
  Ge  Ge6  2  0.50000000  0.24999000  0.91083000  1.0
  Ge  Ge7  2  0.93133000  0.24912000  0.03545000  1.0
  Pd  Pd8  1  0.22730000  0.00000000  0.97028000  1.0
  Pd  Pd9  1  0.22730000  0.50000000  0.97028000  1.0
  Pd  Pd10  1  0.63811000  0.50000000  0.07664000  1.0
  Pd  Pd11  1  0.63841000  0.00000000  0.07766000  1.0
  C  C12  1  0.18968000  0.00000000  0.18326000  1.0
  O  O13  1  0.20491000  0.00000000  0.23039000  1.0
