# generated using pymatgen
data_Si16Os16CO
_symmetry_space_group_name_H-M   Pmm2
_cell_length_a   5.90864000
_cell_length_b   8.35608000
_cell_length_c   26.26710000
_cell_angle_alpha   90.00000000
_cell_angle_beta   90.00000000
_cell_angle_gamma   90.00000000
_symmetry_Int_Tables_number   25
_chemical_formula_structural   Si16Os16CO
_chemical_formula_sum   'Si16 Os16 C1 O1'
_cell_volume   1296.88732842
_cell_formula_units_Z   1
loop_
 _symmetry_equiv_pos_site_id
 _symmetry_equiv_pos_as_xyz
  1  'x, y, z'
  2  '-x, -y, z'
  3  '-x, y, z'
  4  'x, -y, z'
loop_
 _atom_site_type_symbol
 _atom_site_label
 _atom_site_symmetry_multiplicity
 _atom_site_fract_x
 _atom_site_fract_y
 _atom_site_fract_z
 _atom_site_occupancy
  Si  Si0  4  0.24987000  0.25301000  0.12080000  1.0
  Si  Si1  4  0.25000000  0.25000000  0.96023000  1.0
  Si  Si2  2  0.25000000  0.00000000  0.88070000  1.0
  Si  Si3  2  0.25000000  0.50000000  0.88070000  1.0
  Si  Si4  2  0.25066000  0.50000000  0.04118000  1.0
  Si  Si5  2  0.25454000  0.00000000  0.04037000  1.0
  Os  Os6  2  0.00000000  0.24113000  0.03945000  1.0
  Os  Os7  2  0.00000000  0.25000000  0.88070000  1.0
  Os  Os8  2  0.50000000  0.25000000  0.88070000  1.0
  Os  Os9  2  0.50000000  0.25207000  0.03813000  1.0
  Os  Os10  1  0.00000000  0.00000000  0.12420000  1.0
  Os  Os11  1  0.00000000  0.00000000  0.96023000  1.0
  Os  Os12  1  0.00000000  0.50000000  0.11482000  1.0
  Os  Os13  1  0.00000000  0.50000000  0.96023000  1.0
  Os  Os14  1  0.50000000  0.00000000  0.11526000  1.0
  Os  Os15  1  0.50000000  0.00000000  0.96023000  1.0
  Os  Os16  1  0.50000000  0.50000000  0.11664000  1.0
  Os  Os17  1  0.50000000  0.50000000  0.96023000  1.0
  C  C18  1  0.00000000  0.00000000  0.19646000  1.0
  O  O19  1  0.00000000  0.00000000  0.24057000  1.0
