# generated using pymatgen
data_Zr8Ni16Sb8C
_symmetry_space_group_name_H-M   'P 1'
_cell_length_a   6.34024000
_cell_length_b   8.96645000
_cell_length_c   26.72480000
_cell_angle_alpha   90.00000000
_cell_angle_beta   90.00000000
_cell_angle_gamma   90.00000000
_symmetry_Int_Tables_number   1
_chemical_formula_structural   Zr8Ni16Sb8C
_chemical_formula_sum   'Zr8 Ni16 Sb8 C1'
_cell_volume   1519.29004635
_cell_formula_units_Z   1
loop_
 _symmetry_equiv_pos_site_id
 _symmetry_equiv_pos_as_xyz
  1  'x, y, z'
loop_
 _atom_site_type_symbol
 _atom_site_label
 _atom_site_symmetry_multiplicity
 _atom_site_fract_x
 _atom_site_fract_y
 _atom_site_fract_z
 _atom_site_occupancy
  Zr  Zr0  1  0.00000000  0.50000000  0.87418000  1.0
  Zr  Zr1  1  0.50000000  0.75002000  0.95806000  1.0
  Zr  Zr2  1  0.50000000  0.24998000  0.95806000  1.0
  Zr  Zr3  1  0.00000000  0.00000000  0.87418000  1.0
  Zr  Zr4  1  0.00000000  0.00000000  0.03945000  1.0
  Zr  Zr5  1  0.50000000  0.24823000  0.12532000  1.0
  Zr  Zr6  1  0.50000000  0.75177000  0.12532000  1.0
  Zr  Zr7  1  0.00000000  0.50000000  0.04831000  1.0
  Ni  Ni8  1  0.25000000  0.50000000  0.95806000  1.0
  Ni  Ni9  1  0.75000000  0.00000000  0.95806000  1.0
  Ni  Ni10  1  0.75000000  0.50000000  0.95806000  1.0
  Ni  Ni11  1  0.25000000  0.00000000  0.95806000  1.0
  Ni  Ni12  1  0.75000000  0.25002000  0.87418000  1.0
  Ni  Ni13  1  0.25000000  0.74998000  0.87418000  1.0
  Ni  Ni14  1  0.25000000  0.25002000  0.87418000  1.0
  Ni  Ni15  1  0.75000000  0.74998000  0.87418000  1.0
  Ni  Ni16  1  0.28087000  0.00000000  0.11644000  1.0
  Ni  Ni17  1  0.71323000  0.50000000  0.12754000  1.0
  Ni  Ni18  1  0.71913000  0.00000000  0.11644000  1.0
  Ni  Ni19  1  0.28677000  0.50000000  0.12754000  1.0
  Ni  Ni20  1  0.75995000  0.75380000  0.04628000  1.0
  Ni  Ni21  1  0.24005000  0.24620000  0.04628000  1.0
  Ni  Ni22  1  0.24005000  0.75380000  0.04628000  1.0
  Ni  Ni23  1  0.75995000  0.24620000  0.04628000  1.0
  Sb  Sb24  1  0.00000000  0.25002000  0.95806000  1.0
  Sb  Sb25  1  0.50000000  0.50000000  0.87418000  1.0
  Sb  Sb26  1  0.00000000  0.74998000  0.95806000  1.0
  Sb  Sb27  1  0.50000000  0.00000000  0.87418000  1.0
  Sb  Sb28  1  0.00000000  0.78812000  0.13683000  1.0
  Sb  Sb29  1  0.50000000  0.00000000  0.03688000  1.0
  Sb  Sb30  1  0.00000000  0.21188000  0.13683000  1.0
  Sb  Sb31  1  0.50000000  0.50000000  0.04078000  1.0
  C  C32  1  0.00000000  0.50000000  0.13435000  1.0
