# generated using pymatgen
data_Zr8Ni16Sb8C
_symmetry_space_group_name_H-M   Pmm2
_cell_length_a   6.34024000
_cell_length_b   8.96645000
_cell_length_c   26.72480000
_cell_angle_alpha   90.00000000
_cell_angle_beta   90.00000000
_cell_angle_gamma   90.00000000
_symmetry_Int_Tables_number   25
_chemical_formula_structural   Zr8Ni16Sb8C
_chemical_formula_sum   'Zr8 Ni16 Sb8 C1'
_cell_volume   1519.29004635
_cell_formula_units_Z   1
loop_
 _symmetry_equiv_pos_site_id
 _symmetry_equiv_pos_as_xyz
  1  'x, y, z'
  2  '-x, -y, z'
  3  '-x, y, z'
  4  'x, -y, z'
loop_
 _atom_site_type_symbol
 _atom_site_label
 _atom_site_symmetry_multiplicity
 _atom_site_fract_x
 _atom_site_fract_y
 _atom_site_fract_z
 _atom_site_occupancy
  Zr  Zr0  2  0.50000000  0.24823000  0.12532000  1.0
  Zr  Zr1  2  0.50000000  0.24998000  0.95806000  1.0
  Zr  Zr2  1  0.00000000  0.00000000  0.03945000  1.0
  Zr  Zr3  1  0.00000000  0.00000000  0.87418000  1.0
  Zr  Zr4  1  0.00000000  0.50000000  0.04831000  1.0
  Zr  Zr5  1  0.00000000  0.50000000  0.87418000  1.0
  Ni  Ni6  4  0.24005000  0.24620000  0.04628000  1.0
  Ni  Ni7  4  0.25000000  0.25002000  0.87418000  1.0
  Ni  Ni8  2  0.25000000  0.00000000  0.95806000  1.0
  Ni  Ni9  2  0.25000000  0.50000000  0.95806000  1.0
  Ni  Ni10  2  0.28087000  0.00000000  0.11644000  1.0
  Ni  Ni11  2  0.28677000  0.50000000  0.12754000  1.0
  Sb  Sb12  2  0.00000000  0.21188000  0.13683000  1.0
  Sb  Sb13  2  0.00000000  0.25002000  0.95806000  1.0
  Sb  Sb14  1  0.50000000  0.00000000  0.03688000  1.0
  Sb  Sb15  1  0.50000000  0.00000000  0.87418000  1.0
  Sb  Sb16  1  0.50000000  0.50000000  0.04078000  1.0
  Sb  Sb17  1  0.50000000  0.50000000  0.87418000  1.0
  C  C18  1  0.00000000  0.50000000  0.13435000  1.0
