data_image0
_chemical_formula_structural       Li4V4Ge4Pd4
_chemical_formula_sum              "Li4 V4 Ge4 Pd4"
_cell_length_a       5.17268
_cell_length_b       9.40562
_cell_length_c       23.5635
_cell_angle_alpha    90
_cell_angle_beta     90
_cell_angle_gamma    90

_space_group_name_H-M_alt    "P 1"
_space_group_IT_number       1

loop_
  _space_group_symop_operation_xyz
  'x, y, z'

loop_
  _atom_site_type_symbol
  _atom_site_label
  _atom_site_symmetry_multiplicity
  _atom_site_fract_x
  _atom_site_fract_y
  _atom_site_fract_z
  _atom_site_occupancy
  Li  Li1       1.0  0.31224  0.24987  0.03272  1.0000
  Li  Li2       1.0  0.45349  0.25000  0.92439  1.0000
  Li  Li3       1.0  0.31209  0.75015  0.03266  1.0000
  Li  Li4       1.0  0.45349  0.75000  0.92439  1.0000
  V   V1        1.0  0.62285  0.99999  0.05905  1.0000
  V   V2        1.0  0.80233  0.00000  0.97480  1.0000
  V   V3        1.0  0.62458  0.50000  0.05852  1.0000
  V   V4        1.0  0.80233  0.50000  0.97480  1.0000
  Ge  Ge1       1.0  0.10598  0.00003  0.07269  1.0000
  Ge  Ge2       1.0  0.30233  0.00000  0.97480  1.0000
  Ge  Ge3       1.0  0.10759  0.49999  0.07288  1.0000
  Ge  Ge4       1.0  0.30233  0.50000  0.97480  1.0000
  Pd  Pd1       1.0  0.82276  0.24914  0.04224  1.0000
  Pd  Pd2       1.0  0.95349  0.25000  0.92439  1.0000
  Pd  Pd3       1.0  0.82263  0.75085  0.04221  1.0000
  Pd  Pd4       1.0  0.95349  0.75000  0.92439  1.0000
