# generated using pymatgen
data_Li8Mg8In8Ge8CO
_symmetry_space_group_name_H-M   Pmm2
_cell_length_a   8.41850000
_cell_length_b   8.75068000
_cell_length_c   26.30740000
_cell_angle_alpha   90.00000000
_cell_angle_beta   90.00000000
_cell_angle_gamma   90.00000000
_symmetry_Int_Tables_number   25
_chemical_formula_structural   Li8Mg8In8Ge8CO
_chemical_formula_sum   'Li8 Mg8 In8 Ge8 C1 O1'
_cell_volume   1938.00300919
_cell_formula_units_Z   1
loop_
 _symmetry_equiv_pos_site_id
 _symmetry_equiv_pos_as_xyz
  1  'x, y, z'
  2  '-x, -y, z'
  3  '-x, y, z'
  4  'x, -y, z'
loop_
 _atom_site_type_symbol
 _atom_site_label
 _atom_site_symmetry_multiplicity
 _atom_site_fract_x
 _atom_site_fract_y
 _atom_site_fract_z
 _atom_site_occupancy
  Li  Li0  4  0.25000000  0.25000000  0.03996000  1.0
  Li  Li1  4  0.25307000  0.25548000  0.88196000  1.0
  Mg  Mg2  1  0.00000000  0.00000000  0.03996000  1.0
  Mg  Mg3  1  0.00000000  0.00000000  0.88289000  1.0
  Mg  Mg4  1  0.00000000  0.50000000  0.03996000  1.0
  Mg  Mg5  1  0.00000000  0.50000000  0.87334000  1.0
  Mg  Mg6  1  0.50000000  0.00000000  0.03996000  1.0
  Mg  Mg7  1  0.50000000  0.00000000  0.87280000  1.0
  Mg  Mg8  1  0.50000000  0.50000000  0.03996000  1.0
  Mg  Mg9  1  0.50000000  0.50000000  0.87353000  1.0
  In  In10  2  0.00000000  0.25000000  0.11988000  1.0
  In  In11  2  0.00000000  0.25371000  0.95937000  1.0
  In  In12  2  0.50000000  0.25000000  0.11988000  1.0
  In  In13  2  0.50000000  0.25069000  0.95932000  1.0
  Ge  Ge14  2  0.25000000  0.00000000  0.11988000  1.0
  Ge  Ge15  2  0.25000000  0.50000000  0.11988000  1.0
  Ge  Ge16  2  0.25265000  0.50000000  0.95489000  1.0
  Ge  Ge17  2  0.25355000  0.00000000  0.95364000  1.0
  C  C18  1  0.00000000  0.00000000  0.79950000  1.0
  O  O19  1  0.00000000  0.00000000  0.75577000  1.0
