data_image0
_chemical_formula_structural       Li8Ag4Bi4CO
_chemical_formula_sum              "Li8 Ag4 Bi4 C1 O1"
_cell_length_a       6.92564
_cell_length_b       6.92564
_cell_length_c       25.1942
_cell_angle_alpha    90
_cell_angle_beta     90
_cell_angle_gamma    90

_space_group_name_H-M_alt    "P 1"
_space_group_IT_number       1

loop_
  _space_group_symop_operation_xyz
  'x, y, z'

loop_
  _atom_site_type_symbol
  _atom_site_label
  _atom_site_symmetry_multiplicity
  _atom_site_fract_x
  _atom_site_fract_y
  _atom_site_fract_z
  _atom_site_occupancy
  Li  Li1       1.0  0.00000  0.00000  0.96564  1.0000
  Li  Li2       1.0  0.50001  0.00000  0.10825  1.0000
  Li  Li3       1.0  0.00000  0.50000  0.10827  1.0000
  Li  Li4       1.0  0.50000  0.50000  0.96564  1.0000
  Li  Li5       1.0  0.25466  0.25467  0.04022  1.0000
  Li  Li6       1.0  0.25000  0.75000  0.89692  1.0000
  Li  Li7       1.0  0.74534  0.74533  0.04022  1.0000
  Li  Li8       1.0  0.75000  0.25000  0.89692  1.0000
  Ag  Ag1       1.0  0.25000  0.25000  0.89692  1.0000
  Ag  Ag2       1.0  0.25351  0.74650  0.03979  1.0000
  Ag  Ag3       1.0  0.75000  0.75000  0.89692  1.0000
  Ag  Ag4       1.0  0.74648  0.25351  0.03979  1.0000
  Bi  Bi1       1.0  0.99999  0.00002  0.10264  1.0000
  Bi  Bi2       1.0  0.50000  0.50003  0.10638  1.0000
  Bi  Bi3       1.0  0.50000  0.00000  0.96564  1.0000
  Bi  Bi4       1.0  0.00000  0.50000  0.96564  1.0000
  C   C1        1.0  0.00006  0.99974  0.28248  1.0000
  O   O1        1.0  0.99997  0.00012  0.32755  1.0000
