# generated using pymatgen
data_Li8Al8Ag8Pd8CO
_symmetry_space_group_name_H-M   'P 1'
_cell_length_a   8.79558000
_cell_length_b   6.21941000
_cell_length_c   26.59670000
_cell_angle_alpha   90.00000000
_cell_angle_beta   90.00000000
_cell_angle_gamma   90.00000000
_symmetry_Int_Tables_number   1
_chemical_formula_structural   Li8Al8Ag8Pd8CO
_chemical_formula_sum   'Li8 Al8 Ag8 Pd8 C1 O1'
_cell_volume   1454.92774338
_cell_formula_units_Z   1
loop_
 _symmetry_equiv_pos_site_id
 _symmetry_equiv_pos_as_xyz
  1  'x, y, z'
loop_
 _atom_site_type_symbol
 _atom_site_label
 _atom_site_symmetry_multiplicity
 _atom_site_fract_x
 _atom_site_fract_y
 _atom_site_fract_z
 _atom_site_occupancy
  Li  Li0  1  0.75000000  0.25000000  0.04134000  1.0
  Li  Li1  1  0.25000000  0.25000000  0.04134000  1.0
  Li  Li2  1  0.00000000  0.75000000  0.12401000  1.0
  Li  Li3  1  0.50000000  0.75000000  0.12401000  1.0
  Li  Li4  1  0.25149000  0.23998000  0.87005000  1.0
  Li  Li5  1  0.74851000  0.23998000  0.87005000  1.0
  Li  Li6  1  0.50000000  0.74881000  0.96083000  1.0
  Li  Li7  1  0.00000000  0.74165000  0.95930000  1.0
  Al  Al8  1  0.75000000  0.75000000  0.04134000  1.0
  Al  Al9  1  0.25000000  0.75000000  0.04134000  1.0
  Al  Al10  1  0.00000000  0.25000000  0.12401000  1.0
  Al  Al11  1  0.50000000  0.25000000  0.12401000  1.0
  Al  Al12  1  0.25206000  0.76617000  0.87889000  1.0
  Al  Al13  1  0.74794000  0.76617000  0.87889000  1.0
  Al  Al14  1  0.50000000  0.25556000  0.95768000  1.0
  Al  Al15  1  0.00000000  0.25904000  0.95659000  1.0
  Ag  Ag16  1  0.75000000  0.00000000  0.12401000  1.0
  Ag  Ag17  1  0.25000000  0.00000000  0.12401000  1.0
  Ag  Ag18  1  0.50000000  0.50000000  0.04134000  1.0
  Ag  Ag19  1  0.00000000  0.50000000  0.04134000  1.0
  Ag  Ag20  1  0.24896000  0.00772000  0.96117000  1.0
  Ag  Ag21  1  0.75104000  0.00772000  0.96117000  1.0
  Ag  Ag22  1  0.00000000  0.51290000  0.87194000  1.0
  Ag  Ag23  1  0.50000000  0.51239000  0.87545000  1.0
  Pd  Pd24  1  0.00000000  0.00000000  0.04134000  1.0
  Pd  Pd25  1  0.50000000  1.00000000  0.04134000  1.0
  Pd  Pd26  1  0.25000000  0.50000000  0.12401000  1.0
  Pd  Pd27  1  0.75000000  0.50000000  0.12401000  1.0
  Pd  Pd28  1  0.50000000  0.98973000  0.88321000  1.0
  Pd  Pd29  1  0.00000000  0.98438000  0.88379000  1.0
  Pd  Pd30  1  0.75162000  0.50022000  0.95748000  1.0
  Pd  Pd31  1  0.24838000  0.50022000  0.95748000  1.0
  C  C32  1  0.00000000  0.45834000  0.78782000  1.0
  O  O33  1  0.00000000  0.50508000  0.74622000  1.0
