# generated using pymatgen
data_Fe12Si4CO
_symmetry_space_group_name_H-M   Cmm2
_cell_length_a   7.97981316
_cell_length_b   7.97981316
_cell_length_c   24.23190000
_cell_angle_alpha   90.00000000
_cell_angle_beta   90.00000000
_cell_angle_gamma   90.00000000
_symmetry_Int_Tables_number   35
_chemical_formula_structural   Fe12Si4CO
_chemical_formula_sum   'Fe24 Si8 C2 O2'
_cell_volume   1543.02482797
_cell_formula_units_Z   2
loop_
 _symmetry_equiv_pos_site_id
 _symmetry_equiv_pos_as_xyz
  1  'x, y, z'
  2  '-x, -y, z'
  3  '-x, y, z'
  4  'x, -y, z'
  5  'x+1/2, y+1/2, z'
  6  '-x+1/2, -y+1/2, z'
  7  '-x+1/2, y+1/2, z'
  8  'x+1/2, -y+1/2, z'
loop_
 _atom_site_type_symbol
 _atom_site_label
 _atom_site_symmetry_multiplicity
 _atom_site_fract_x
 _atom_site_fract_y
 _atom_site_fract_z
 _atom_site_occupancy
  Fe  Fe0  4  0.00000000  0.25000000  0.02911000  1.0
  Fe  Fe1  4  0.25000000  0.00000000  0.91268000  1.0
  Fe  Fe2  4  0.25000000  0.25000000  0.08732000  1.0
  Fe  Fe3  4  0.25000000  0.25000000  0.97089000  1.0
  Fe  Fe4  2  0.00000000  0.00000000  0.08732000  1.0
  Fe  Fe5  2  0.00000000  0.00000000  0.97089000  1.0
  Fe  Fe6  2  0.00000000  0.50000000  0.08732000  1.0
  Fe  Fe7  2  0.00000000  0.50000000  0.97089000  1.0
  Si  Si8  4  0.00000000  0.25000000  0.91268000  1.0
  Si  Si9  4  0.25000000  0.00000000  0.02911000  1.0
  C  C10  2  0.00000000  0.50000000  0.16573000  1.0
  O  O11  2  0.00000000  0.50000000  0.21319000  1.0
