# generated using pymatgen
data_Li8Al8Ga8Pd8C
_symmetry_space_group_name_H-M   'P 1'
_cell_length_a   8.69058000
_cell_length_b   6.14517000
_cell_length_c   26.51790000
_cell_angle_alpha   90.00000000
_cell_angle_beta   90.00000000
_cell_angle_gamma   90.00000000
_symmetry_Int_Tables_number   1
_chemical_formula_structural   Li8Al8Ga8Pd8C
_chemical_formula_sum   'Li8 Al8 Ga8 Pd8 C1'
_cell_volume   1416.19087585
_cell_formula_units_Z   1
loop_
 _symmetry_equiv_pos_site_id
 _symmetry_equiv_pos_as_xyz
  1  'x, y, z'
loop_
 _atom_site_type_symbol
 _atom_site_label
 _atom_site_symmetry_multiplicity
 _atom_site_fract_x
 _atom_site_fract_y
 _atom_site_fract_z
 _atom_site_occupancy
  Li  Li0  1  0.00000000  0.75000000  0.04097000  1.0
  Li  Li1  1  0.50000000  0.75000000  0.04097000  1.0
  Li  Li2  1  0.25000000  0.25000000  0.12290000  1.0
  Li  Li3  1  0.75000000  0.25000000  0.12290000  1.0
  Li  Li4  1  0.50000000  0.72850000  0.85122000  1.0
  Li  Li5  1  0.00000000  0.80661000  0.82780000  1.0
  Li  Li6  1  0.75202000  0.24093000  0.95505000  1.0
  Li  Li7  1  0.24798000  0.24093000  0.95505000  1.0
  Al  Al8  1  0.00000000  0.00000000  0.12290000  1.0
  Al  Al9  1  0.50000000  0.00000000  0.12290000  1.0
  Al  Al10  1  0.75000000  0.50000000  0.04097000  1.0
  Al  Al11  1  0.25000000  0.50000000  0.04097000  1.0
  Al  Al12  1  0.50000000  0.98610000  0.95241000  1.0
  Al  Al13  1  0.00000000  0.96528000  0.95284000  1.0
  Al  Al14  1  0.22690000  0.53125000  0.87341000  1.0
  Al  Al15  1  0.77310000  0.53125000  0.87341000  1.0
  Ga  Ga16  1  0.25000000  0.00000000  0.04097000  1.0
  Ga  Ga17  1  0.75000000  0.00000000  0.04097000  1.0
  Ga  Ga18  1  0.50000000  0.50000000  0.12290000  1.0
  Ga  Ga19  1  0.00000000  0.50000000  0.12290000  1.0
  Ga  Ga20  1  0.74070000  0.99185000  0.86719000  1.0
  Ga  Ga21  1  0.25930000  0.99185000  0.86719000  1.0
  Ga  Ga22  1  0.00000000  0.51483000  0.95453000  1.0
  Ga  Ga23  1  0.50000000  0.50363000  0.95936000  1.0
  Pd  Pd24  1  0.00000000  0.25000000  0.04097000  1.0
  Pd  Pd25  1  0.50000000  0.25000000  0.04097000  1.0
  Pd  Pd26  1  0.25000000  0.75000000  0.12290000  1.0
  Pd  Pd27  1  0.75000000  0.75000000  0.12290000  1.0
  Pd  Pd28  1  0.50000000  0.26520000  0.88105000  1.0
  Pd  Pd29  1  0.00000000  0.18752000  0.87630000  1.0
  Pd  Pd30  1  0.74379000  0.74795000  0.96315000  1.0
  Pd  Pd31  1  0.25621000  0.74795000  0.96315000  1.0
  C  C32  1  0.00000000  0.52975000  0.87213000  1.0
