# generated using pymatgen
data_Li16Sb8Au8C
_symmetry_space_group_name_H-M   'P 1'
_cell_length_a   9.42638000
_cell_length_b   6.66546000
_cell_length_c   27.06980000
_cell_angle_alpha   90.00000000
_cell_angle_beta   90.00000000
_cell_angle_gamma   90.00000000
_symmetry_Int_Tables_number   1
_chemical_formula_structural   Li16Sb8Au8C
_chemical_formula_sum   'Li16 Sb8 Au8 C1'
_cell_volume   1700.82690343
_cell_formula_units_Z   1
loop_
 _symmetry_equiv_pos_site_id
 _symmetry_equiv_pos_as_xyz
  1  'x, y, z'
loop_
 _atom_site_type_symbol
 _atom_site_label
 _atom_site_symmetry_multiplicity
 _atom_site_fract_x
 _atom_site_fract_y
 _atom_site_fract_z
 _atom_site_occupancy
  Li  Li0  1  0.75000000  1.00000000  0.04353000  1.0
  Li  Li1  1  0.00000000  0.50000000  0.13058000  1.0
  Li  Li2  1  0.25000000  1.00000000  0.04353000  1.0
  Li  Li3  1  0.50000000  0.50000000  0.13058000  1.0
  Li  Li4  1  0.25000000  0.25000000  0.13058000  1.0
  Li  Li5  1  0.75000000  0.25000000  0.13058000  1.0
  Li  Li6  1  0.50000000  0.75000000  0.04353000  1.0
  Li  Li7  1  0.00000000  0.75000000  0.04353000  1.0
  Li  Li8  1  0.25724000  0.00769000  0.87519000  1.0
  Li  Li9  1  0.50000000  0.51080000  0.96291000  1.0
  Li  Li10  1  0.74276000  0.00769000  0.87519000  1.0
  Li  Li11  1  0.00000000  0.53936000  0.93857000  1.0
  Li  Li12  1  0.75333000  0.27460000  0.95419000  1.0
  Li  Li13  1  0.24667000  0.27460000  0.95419000  1.0
  Li  Li14  1  0.00000000  0.78487000  0.82449000  1.0
  Li  Li15  1  0.50000000  0.71253000  0.86819000  1.0
  Sb  Sb16  1  0.00000000  0.00000000  0.13058000  1.0
  Sb  Sb17  1  0.25000000  0.50000000  0.04353000  1.0
  Sb  Sb18  1  0.75000000  0.50000000  0.04353000  1.0
  Sb  Sb19  1  0.50000000  1.00000000  0.13058000  1.0
  Sb  Sb20  1  0.50000000  0.99731000  0.95259000  1.0
  Sb  Sb21  1  0.76813000  0.53963000  0.86376000  1.0
  Sb  Sb22  1  0.23187000  0.53963000  0.86376000  1.0
  Sb  Sb23  1  0.00000000  0.98984000  0.95472000  1.0
  Au  Au24  1  0.00000000  0.25000000  0.04353000  1.0
  Au  Au25  1  0.50000000  0.25000000  0.04353000  1.0
  Au  Au26  1  0.75000000  0.75000000  0.13058000  1.0
  Au  Au27  1  0.25000000  0.75000000  0.13058000  1.0
  Au  Au28  1  0.50000000  0.29506000  0.87793000  1.0
  Au  Au29  1  0.00000000  0.20280000  0.86908000  1.0
  Au  Au30  1  0.25335000  0.73599000  0.95778000  1.0
  Au  Au31  1  0.74665000  0.73599000  0.95778000  1.0
  C  C32  1  0.00000000  0.47749000  0.83218000  1.0
