# generated using pymatgen
data_Li16Sb8Au8C
_symmetry_space_group_name_H-M   Pm
_cell_length_a   6.66546000
_cell_length_b   9.42638000
_cell_length_c   27.06980000
_cell_angle_alpha   90.00000000
_cell_angle_beta   90.00000000
_cell_angle_gamma   90.00000000
_symmetry_Int_Tables_number   6
_chemical_formula_structural   Li16Sb8Au8C
_chemical_formula_sum   'Li16 Sb8 Au8 C1'
_cell_volume   1700.82690343
_cell_formula_units_Z   1
loop_
 _symmetry_equiv_pos_site_id
 _symmetry_equiv_pos_as_xyz
  1  'x, y, z'
  2  'x, -y, z'
loop_
 _atom_site_type_symbol
 _atom_site_label
 _atom_site_symmetry_multiplicity
 _atom_site_fract_x
 _atom_site_fract_y
 _atom_site_fract_z
 _atom_site_occupancy
  Li  Li0  2  -0.00000000  0.25000000  0.95647000  1.0
  Li  Li1  2  0.00769000  0.25724000  0.12481000  1.0
  Li  Li2  2  0.25000000  0.25000000  0.86942000  1.0
  Li  Li3  2  0.27460000  0.24667000  0.04581000  1.0
  Li  Li4  1  0.50000000  0.00000000  0.86942000  1.0
  Li  Li5  1  0.50000000  0.50000000  0.86942000  1.0
  Li  Li6  1  0.51080000  0.50000000  0.03709000  1.0
  Li  Li7  1  0.53936000  0.00000000  0.06143000  1.0
  Li  Li8  1  0.71253000  0.50000000  0.13181000  1.0
  Li  Li9  1  0.75000000  0.00000000  0.95647000  1.0
  Li  Li10  1  0.75000000  0.50000000  0.95647000  1.0
  Li  Li11  1  0.78487000  0.00000000  0.17551000  1.0
  Sb  Sb12  2  0.50000000  0.25000000  0.95647000  1.0
  Sb  Sb13  2  0.53963000  0.23187000  0.13624000  1.0
  Sb  Sb14  1  -0.00000000  0.50000000  0.86942000  1.0
  Sb  Sb15  1  0.00000000  0.00000000  0.86942000  1.0
  Sb  Sb16  1  0.98984000  0.00000000  0.04528000  1.0
  Sb  Sb17  1  0.99731000  0.50000000  0.04741000  1.0
  Au  Au18  2  0.73599000  0.25335000  0.04222000  1.0
  Au  Au19  2  0.75000000  0.25000000  0.86942000  1.0
  Au  Au20  1  0.20280000  0.00000000  0.13092000  1.0
  Au  Au21  1  0.25000000  0.00000000  0.95647000  1.0
  Au  Au22  1  0.25000000  0.50000000  0.95647000  1.0
  Au  Au23  1  0.29506000  0.50000000  0.12207000  1.0
  C  C24  1  0.47749000  0.00000000  0.16782000  1.0
