# generated using pymatgen
data_Li8In4Ir4C
_symmetry_space_group_name_H-M   P4mm
_cell_length_a   6.17944000
_cell_length_b   6.17944000
_cell_length_c   24.63460000
_cell_angle_alpha   90.00000000
_cell_angle_beta   90.00000000
_cell_angle_gamma   90.00000000
_symmetry_Int_Tables_number   99
_chemical_formula_structural   Li8In4Ir4C
_chemical_formula_sum   'Li8 In4 Ir4 C1'
_cell_volume   940.68399392
_cell_formula_units_Z   1
loop_
 _symmetry_equiv_pos_site_id
 _symmetry_equiv_pos_as_xyz
  1  'x, y, z'
  2  '-y, x, z'
  3  '-x, -y, z'
  4  'y, -x, z'
  5  '-x, y, z'
  6  'y, x, z'
  7  'x, -y, z'
  8  '-y, -x, z'
loop_
 _atom_site_type_symbol
 _atom_site_label
 _atom_site_symmetry_multiplicity
 _atom_site_fract_x
 _atom_site_fract_y
 _atom_site_fract_z
 _atom_site_occupancy
  Li  Li0  4  0.25000000  0.25000000  0.96864000  1.0
  Li  Li1  4  0.25000000  0.75000000  0.09407000  1.0
  In  In2  2  0.00000000  0.50000000  0.90593000  1.0
  In  In3  1  0.00000000  0.00000000  0.03136000  1.0
  In  In4  1  0.50000000  0.50000000  0.03136000  1.0
  Ir  Ir5  2  0.00000000  0.50000000  0.03136000  1.0
  Ir  Ir6  1  0.00000000  0.00000000  0.90593000  1.0
  Ir  Ir7  1  0.50000000  0.50000000  0.90593000  1.0
  C  C8  1  0.00000000  0.00000000  0.12654000  1.0
