# generated using pymatgen
data_Li4Sc4In4Ga4CO
_symmetry_space_group_name_H-M   'P 1'
_cell_length_a   6.09788000
_cell_length_b   8.23116000
_cell_length_c   24.56590000
_cell_angle_alpha   90.00000000
_cell_angle_beta   90.00000000
_cell_angle_gamma   90.00000000
_symmetry_Int_Tables_number   1
_chemical_formula_structural   Li4Sc4In4Ga4CO
_chemical_formula_sum   'Li4 Sc4 In4 Ga4 C1 O1'
_cell_volume   1233.02702960
_cell_formula_units_Z   1
loop_
 _symmetry_equiv_pos_site_id
 _symmetry_equiv_pos_as_xyz
  1  'x, y, z'
loop_
 _atom_site_type_symbol
 _atom_site_label
 _atom_site_symmetry_multiplicity
 _atom_site_fract_x
 _atom_site_fract_y
 _atom_site_fract_z
 _atom_site_occupancy
  Li  Li0  1  0.46163000  0.99979000  0.89388000  1.0
  Li  Li1  1  0.02863000  0.00000000  0.03098000  1.0
  Li  Li2  1  0.47430000  0.50029000  0.89237000  1.0
  Li  Li3  1  0.02863000  0.50000000  0.03098000  1.0
  Sc  Sc4  1  0.72864000  0.74848000  0.96764000  1.0
  Sc  Sc5  1  0.29294000  0.75000000  0.09293000  1.0
  Sc  Sc6  1  0.72828000  0.25085000  0.96753000  1.0
  Sc  Sc7  1  0.29294000  0.25000000  0.09293000  1.0
  In  In8  1  0.23262000  0.74505000  0.95776000  1.0
  In  In9  1  0.79294000  0.75000000  0.09293000  1.0
  In  In10  1  0.23342000  0.25496000  0.95739000  1.0
  In  In11  1  0.79294000  0.25000000  0.09293000  1.0
  Ga  Ga12  1  0.92924000  0.00008000  0.91031000  1.0
  Ga  Ga13  1  0.52863000  0.00000000  0.03098000  1.0
  Ga  Ga14  1  0.93987000  0.49997000  0.91221000  1.0
  Ga  Ga15  1  0.52863000  0.50000000  0.03098000  1.0
  C  C16  1  0.10148000  0.99984000  0.84117000  1.0
  O  O17  1  0.16524000  0.99946000  0.79638000  1.0
