# generated using pymatgen
data_Al16C
_symmetry_space_group_name_H-M   'P 1'
_cell_length_a   6.41951000
_cell_length_b   6.41951000
_cell_length_c   24.81460000
_cell_angle_alpha   90.00000000
_cell_angle_beta   90.00000000
_cell_angle_gamma   90.00000000
_symmetry_Int_Tables_number   1
_chemical_formula_structural   Al16C
_chemical_formula_sum   'Al16 C1'
_cell_volume   1022.61236186
_cell_formula_units_Z   1
loop_
 _symmetry_equiv_pos_site_id
 _symmetry_equiv_pos_as_xyz
  1  'x, y, z'
loop_
 _atom_site_type_symbol
 _atom_site_label
 _atom_site_symmetry_multiplicity
 _atom_site_fract_x
 _atom_site_fract_y
 _atom_site_fract_z
 _atom_site_occupancy
  Al  Al0  1  0.00000000  0.00000000  0.90299000  1.0
  Al  Al1  1  0.25000000  0.25000000  0.96766000  1.0
  Al  Al2  1  0.00000000  0.00000000  0.03234000  1.0
  Al  Al3  1  0.25000000  0.25000000  0.09701000  1.0
  Al  Al4  1  0.00000000  0.50000000  0.90299000  1.0
  Al  Al5  1  0.25000000  0.75000000  0.96766000  1.0
  Al  Al6  1  0.00000000  0.50000000  0.03234000  1.0
  Al  Al7  1  0.25000000  0.75000000  0.09701000  1.0
  Al  Al8  1  0.50000000  0.00000000  0.90299000  1.0
  Al  Al9  1  0.75000000  0.25000000  0.96766000  1.0
  Al  Al10  1  0.50000000  0.00000000  0.03234000  1.0
  Al  Al11  1  0.75000000  0.25000000  0.09701000  1.0
  Al  Al12  1  0.50000000  0.50000000  0.90299000  1.0
  Al  Al13  1  0.75000000  0.75000000  0.96766000  1.0
  Al  Al14  1  0.50000000  0.50000000  0.03234000  1.0
  Al  Al15  1  0.75000000  0.75000000  0.09701000  1.0
  C  C16  1  0.00000000  0.00000000  0.12925000  1.0
