# generated using pymatgen
data_Li8Mg8Al8Pt8C
_symmetry_space_group_name_H-M   'P 1'
_cell_length_a   8.83714000
_cell_length_b   6.24880000
_cell_length_c   26.62790000
_cell_angle_alpha   90.00000000
_cell_angle_beta   90.00000000
_cell_angle_gamma   90.00000000
_symmetry_Int_Tables_number   1
_chemical_formula_structural   Li8Mg8Al8Pt8C
_chemical_formula_sum   'Li8 Mg8 Al8 Pt8 C1'
_cell_volume   1470.43312391
_cell_formula_units_Z   1
loop_
 _symmetry_equiv_pos_site_id
 _symmetry_equiv_pos_as_xyz
  1  'x, y, z'
loop_
 _atom_site_type_symbol
 _atom_site_label
 _atom_site_symmetry_multiplicity
 _atom_site_fract_x
 _atom_site_fract_y
 _atom_site_fract_z
 _atom_site_occupancy
  Li  Li0  1  0.00000000  0.25000000  0.04148000  1.0
  Li  Li1  1  0.50000000  0.25000000  0.04148000  1.0
  Li  Li2  1  0.25000000  0.75000000  0.12445000  1.0
  Li  Li3  1  0.75000000  0.75000000  0.12445000  1.0
  Li  Li4  1  0.50000000  0.26407000  0.86901000  1.0
  Li  Li5  1  0.00000000  0.28620000  0.83914000  1.0
  Li  Li6  1  0.75207000  0.75917000  0.95900000  1.0
  Li  Li7  1  0.24793000  0.75917000  0.95900000  1.0
  Mg  Mg8  1  0.25000000  0.00000000  0.04148000  1.0
  Mg  Mg9  1  0.75000000  0.00000000  0.04148000  1.0
  Mg  Mg10  1  0.50000000  0.50000000  0.12445000  1.0
  Mg  Mg11  1  0.00000000  0.50000000  0.12445000  1.0
  Mg  Mg12  1  0.75286000  0.99686000  0.86961000  1.0
  Mg  Mg13  1  0.24714000  0.99686000  0.86961000  1.0
  Mg  Mg14  1  0.00000000  0.49125000  0.95816000  1.0
  Mg  Mg15  1  0.50000000  0.50102000  0.96058000  1.0
  Al  Al16  1  0.00000000  0.00000000  0.12445000  1.0
  Al  Al17  1  0.50000000  0.00000000  0.12445000  1.0
  Al  Al18  1  0.75000000  0.50000000  0.04148000  1.0
  Al  Al19  1  0.25000000  0.50000000  0.04148000  1.0
  Al  Al20  1  0.50000000  0.00218000  0.95605000  1.0
  Al  Al21  1  0.00000000  0.02954000  0.95354000  1.0
  Al  Al22  1  0.25648000  0.50841000  0.87755000  1.0
  Al  Al23  1  0.74352000  0.50841000  0.87755000  1.0
  Pt  Pt24  1  0.00000000  0.75000000  0.04148000  1.0
  Pt  Pt25  1  0.50000000  0.75000000  0.04148000  1.0
  Pt  Pt26  1  0.25000000  0.25000000  0.12445000  1.0
  Pt  Pt27  1  0.75000000  0.25000000  0.12445000  1.0
  Pt  Pt28  1  0.50000000  0.74271000  0.88210000  1.0
  Pt  Pt29  1  0.00000000  0.68337000  0.87272000  1.0
  Pt  Pt30  1  0.74178000  0.25063000  0.96055000  1.0
  Pt  Pt31  1  0.25822000  0.25063000  0.96055000  1.0
  C  C32  1  0.00000000  0.00203000  0.87771000  1.0
