# generated using pymatgen
data_Li8Mg8Al8Pt8C
_symmetry_space_group_name_H-M   Pm
_cell_length_a   6.24880000
_cell_length_b   8.83714000
_cell_length_c   26.62790000
_cell_angle_alpha   90.00000000
_cell_angle_beta   90.00000000
_cell_angle_gamma   90.00000000
_symmetry_Int_Tables_number   6
_chemical_formula_structural   Li8Mg8Al8Pt8C
_chemical_formula_sum   'Li8 Mg8 Al8 Pt8 C1'
_cell_volume   1470.43312391
_cell_formula_units_Z   1
loop_
 _symmetry_equiv_pos_site_id
 _symmetry_equiv_pos_as_xyz
  1  'x, y, z'
  2  'x, -y, z'
loop_
 _atom_site_type_symbol
 _atom_site_label
 _atom_site_symmetry_multiplicity
 _atom_site_fract_x
 _atom_site_fract_y
 _atom_site_fract_z
 _atom_site_occupancy
  Li  Li0  2  0.75000000  0.25000000  0.87555000  1.0
  Li  Li1  2  0.75917000  0.24793000  0.04100000  1.0
  Li  Li2  1  0.25000000  0.00000000  0.95852000  1.0
  Li  Li3  1  0.25000000  0.50000000  0.95852000  1.0
  Li  Li4  1  0.26407000  0.50000000  0.13099000  1.0
  Li  Li5  1  0.28620000  0.00000000  0.16086000  1.0
  Mg  Mg6  2  0.00000000  0.25000000  0.95852000  1.0
  Mg  Mg7  2  0.99686000  0.24714000  0.13039000  1.0
  Mg  Mg8  1  0.49125000  0.00000000  0.04184000  1.0
  Mg  Mg9  1  0.50000000  0.00000000  0.87555000  1.0
  Mg  Mg10  1  0.50000000  0.50000000  0.87555000  1.0
  Mg  Mg11  1  0.50102000  0.50000000  0.03942000  1.0
  Al  Al12  2  0.50000000  0.25000000  0.95852000  1.0
  Al  Al13  2  0.50841000  0.25648000  0.12245000  1.0
  Al  Al14  1  0.00000000  0.00000000  0.87555000  1.0
  Al  Al15  1  0.00000000  0.50000000  0.87555000  1.0
  Al  Al16  1  0.00218000  0.50000000  0.04395000  1.0
  Al  Al17  1  0.02954000  0.00000000  0.04646000  1.0
  Pt  Pt18  2  0.25000000  0.25000000  0.87555000  1.0
  Pt  Pt19  2  0.25063000  0.25822000  0.03945000  1.0
  Pt  Pt20  1  0.68337000  0.00000000  0.12728000  1.0
  Pt  Pt21  1  0.74271000  0.50000000  0.11790000  1.0
  Pt  Pt22  1  0.75000000  0.00000000  0.95852000  1.0
  Pt  Pt23  1  0.75000000  0.50000000  0.95852000  1.0
  C  C24  1  0.00203000  0.00000000  0.12229000  1.0
