# generated using pymatgen
data_LiMgGeAu
_symmetry_space_group_name_H-M   Pmm2
_cell_length_a   4.60291866
_cell_length_b   4.60291866
_cell_length_c   24.88210000
_cell_angle_alpha   90.00000000
_cell_angle_beta   90.00000000
_cell_angle_gamma   90.00000000
_symmetry_Int_Tables_number   25
_chemical_formula_structural   LiMgGeAu
_chemical_formula_sum   'Li2 Mg2 Ge2 Au2'
_cell_volume   527.17357468
_cell_formula_units_Z   2
loop_
 _symmetry_equiv_pos_site_id
 _symmetry_equiv_pos_as_xyz
  1  'x, y, z'
  2  '-x, -y, z'
  3  '-x, y, z'
  4  'x, -y, z'
loop_
 _atom_site_type_symbol
 _atom_site_label
 _atom_site_symmetry_multiplicity
 _atom_site_fract_x
 _atom_site_fract_y
 _atom_site_fract_z
 _atom_site_occupancy
  Li  Li0  1  0.00000000  0.50000000  0.03270000  1.0
  Li  Li1  1  0.50000000  0.00000000  0.90189000  1.0
  Mg  Mg2  1  0.00000000  0.50000000  0.90189000  1.0
  Mg  Mg3  1  0.50000000  0.00000000  0.03270000  1.0
  Ge  Ge4  1  0.00000000  0.00000000  0.96730000  1.0
  Ge  Ge5  1  0.50000000  0.50000000  0.09811000  1.0
  Au  Au6  1  0.00000000  0.00000000  0.09811000  1.0
  Au  Au7  1  0.50000000  0.50000000  0.96730000  1.0
