# generated using pymatgen
data_Zr4In4Ni8CO
_symmetry_space_group_name_H-M   P1
_cell_length_a   6.34973000
_cell_length_b   6.34973000
_cell_length_c   24.76230000
_cell_angle_alpha   90.00000000
_cell_angle_beta   90.00000000
_cell_angle_gamma   90.00000000
_symmetry_Int_Tables_number   1
_chemical_formula_structural   Zr4In4Ni8CO
_chemical_formula_sum   'Zr4 In4 Ni8 C1 O1'
_cell_volume   998.39293363
_cell_formula_units_Z   1
loop_
 _symmetry_equiv_pos_site_id
 _symmetry_equiv_pos_as_xyz
  1  'x, y, z'
loop_
 _atom_site_type_symbol
 _atom_site_label
 _atom_site_symmetry_multiplicity
 _atom_site_fract_x
 _atom_site_fract_y
 _atom_site_fract_z
 _atom_site_occupancy
  Zr  Zr0  1  0.00000000  0.50000000  0.96795000  1.0
  Zr  Zr1  1  0.00069000  0.00037000  0.09345000  1.0
  Zr  Zr2  1  0.49949000  0.49947000  0.09348000  1.0
  Zr  Zr3  1  0.50000000  0.00000000  0.96795000  1.0
  In  In4  1  0.00000000  0.00000000  0.96795000  1.0
  In  In5  1  0.50000000  0.50000000  0.96795000  1.0
  In  In6  1  0.50035000  0.99970000  0.10267000  1.0
  In  In7  1  0.99990000  0.50010000  0.10149000  1.0
  Ni  Ni8  1  0.25000000  0.25000000  0.90384000  1.0
  Ni  Ni9  1  0.25000000  0.75000000  0.90384000  1.0
  Ni  Ni10  1  0.25291000  0.24721000  0.03462000  1.0
  Ni  Ni11  1  0.25296000  0.75274000  0.03475000  1.0
  Ni  Ni12  1  0.74718000  0.24720000  0.03480000  1.0
  Ni  Ni13  1  0.74719000  0.75265000  0.03493000  1.0
  Ni  Ni14  1  0.75000000  0.25000000  0.90384000  1.0
  Ni  Ni15  1  0.75000000  0.75000000  0.90384000  1.0
  C  C16  1  0.99685000  0.50424000  0.28943000  1.0
  O  O17  1  0.00101000  0.49871000  0.33529000  1.0
