# generated using pymatgen
data_Li16In8Ag8C
_symmetry_space_group_name_H-M   'P 1'
_cell_length_a   9.43981000
_cell_length_b   6.67495000
_cell_length_c   27.07990000
_cell_angle_alpha   90.00000000
_cell_angle_beta   90.00000000
_cell_angle_gamma   90.00000000
_symmetry_Int_Tables_number   1
_chemical_formula_structural   Li16In8Ag8C
_chemical_formula_sum   'Li16 In8 Ag8 C1'
_cell_volume   1706.31153326
_cell_formula_units_Z   1
loop_
 _symmetry_equiv_pos_site_id
 _symmetry_equiv_pos_as_xyz
  1  'x, y, z'
loop_
 _atom_site_type_symbol
 _atom_site_label
 _atom_site_symmetry_multiplicity
 _atom_site_fract_x
 _atom_site_fract_y
 _atom_site_fract_z
 _atom_site_occupancy
  Li  Li0  1  0.75000000  0.00000000  0.04357000  1.0
  Li  Li1  1  0.00000000  0.50000000  0.13072000  1.0
  Li  Li2  1  0.25000000  0.00000000  0.04357000  1.0
  Li  Li3  1  0.50000000  0.50000000  0.13072000  1.0
  Li  Li4  1  0.00000000  0.25000000  0.04357000  1.0
  Li  Li5  1  0.50000000  0.25000000  0.04357000  1.0
  Li  Li6  1  0.75000000  0.75000000  0.13072000  1.0
  Li  Li7  1  0.25000000  0.75000000  0.13072000  1.0
  Li  Li8  1  0.26786000  0.98065000  0.87209000  1.0
  Li  Li9  1  0.50000000  0.49984000  0.96420000  1.0
  Li  Li10  1  0.73214000  0.98065000  0.87209000  1.0
  Li  Li11  1  0.00000000  0.47402000  0.95024000  1.0
  Li  Li12  1  0.50000000  0.28418000  0.87249000  1.0
  Li  Li13  1  0.00000000  0.18758000  0.86330000  1.0
  Li  Li14  1  0.24313000  0.73930000  0.95527000  1.0
  Li  Li15  1  0.75687000  0.73930000  0.95527000  1.0
  In  In16  1  0.00000000  0.00000000  0.13072000  1.0
  In  In17  1  0.25000000  0.50000000  0.04357000  1.0
  In  In18  1  0.75000000  0.50000000  0.04357000  1.0
  In  In19  1  0.50000000  0.00000000  0.13072000  1.0
  In  In20  1  0.50000000  0.98951000  0.95505000  1.0
  In  In21  1  0.76635000  0.47591000  0.85771000  1.0
  In  In22  1  0.23365000  0.47591000  0.85771000  1.0
  In  In23  1  0.00000000  0.02424000  0.96237000  1.0
  Ag  Ag24  1  0.25000000  0.25000000  0.13072000  1.0
  Ag  Ag25  1  0.75000000  0.25000000  0.13072000  1.0
  Ag  Ag26  1  0.50000000  0.75000000  0.04357000  1.0
  Ag  Ag27  1  0.00000000  0.75000000  0.04357000  1.0
  Ag  Ag28  1  0.73929000  0.25093000  0.95611000  1.0
  Ag  Ag29  1  0.26071000  0.25093000  0.95611000  1.0
  Ag  Ag30  1  0.00000000  0.79531000  0.87982000  1.0
  Ag  Ag31  1  0.50000000  0.70737000  0.87542000  1.0
  C  C32  1  0.00000000  0.48318000  0.86617000  1.0
