# generated using pymatgen
data_Li16In8Ag8C
_symmetry_space_group_name_H-M   Pm
_cell_length_a   6.67495000
_cell_length_b   9.43981000
_cell_length_c   27.07990000
_cell_angle_alpha   90.00000000
_cell_angle_beta   90.00000000
_cell_angle_gamma   90.00000000
_symmetry_Int_Tables_number   6
_chemical_formula_structural   Li16In8Ag8C
_chemical_formula_sum   'Li16 In8 Ag8 C1'
_cell_volume   1706.31153326
_cell_formula_units_Z   1
loop_
 _symmetry_equiv_pos_site_id
 _symmetry_equiv_pos_as_xyz
  1  'x, y, z'
  2  'x, -y, z'
loop_
 _atom_site_type_symbol
 _atom_site_label
 _atom_site_symmetry_multiplicity
 _atom_site_fract_x
 _atom_site_fract_y
 _atom_site_fract_z
 _atom_site_occupancy
  Li  Li0  2  0.00000000  0.25000000  0.95643000  1.0
  Li  Li1  2  0.73930000  0.24313000  0.04473000  1.0
  Li  Li2  2  0.75000000  0.25000000  0.86928000  1.0
  Li  Li3  2  0.98065000  0.26786000  0.12791000  1.0
  Li  Li4  1  0.18758000  0.00000000  0.13670000  1.0
  Li  Li5  1  0.25000000  0.00000000  0.95643000  1.0
  Li  Li6  1  0.25000000  0.50000000  0.95643000  1.0
  Li  Li7  1  0.28418000  0.50000000  0.12751000  1.0
  Li  Li8  1  0.47402000  0.00000000  0.04976000  1.0
  Li  Li9  1  0.49984000  0.50000000  0.03580000  1.0
  Li  Li10  1  0.50000000  0.00000000  0.86928000  1.0
  Li  Li11  1  0.50000000  0.50000000  0.86928000  1.0
  In  In12  2  0.47591000  0.23365000  0.14229000  1.0
  In  In13  2  0.50000000  0.25000000  0.95643000  1.0
  In  In14  1  0.00000000  0.00000000  0.86928000  1.0
  In  In15  1  0.00000000  0.50000000  0.86928000  1.0
  In  In16  1  0.02424000  0.00000000  0.03763000  1.0
  In  In17  1  0.98951000  0.50000000  0.04495000  1.0
  Ag  Ag18  2  0.25000000  0.25000000  0.86928000  1.0
  Ag  Ag19  2  0.25093000  0.26071000  0.04389000  1.0
  Ag  Ag20  1  0.70737000  0.50000000  0.12458000  1.0
  Ag  Ag21  1  0.75000000  0.00000000  0.95643000  1.0
  Ag  Ag22  1  0.75000000  0.50000000  0.95643000  1.0
  Ag  Ag23  1  0.79531000  0.00000000  0.12018000  1.0
  C  C24  1  0.48318000  0.00000000  0.13383000  1.0
