# generated using pymatgen
data_Li8Ag4Sb4CO
_symmetry_space_group_name_H-M   P1
_cell_length_a   6.69979000
_cell_length_b   6.69979000
_cell_length_c   25.02480000
_cell_angle_alpha   90.00000000
_cell_angle_beta   90.00000000
_cell_angle_gamma   90.00000000
_symmetry_Int_Tables_number   1
_chemical_formula_structural   Li8Ag4Sb4CO
_chemical_formula_sum   'Li8 Ag4 Sb4 C1 O1'
_cell_volume   1123.29285332
_cell_formula_units_Z   1
loop_
 _symmetry_equiv_pos_site_id
 _symmetry_equiv_pos_as_xyz
  1  'x, y, z'
loop_
 _atom_site_type_symbol
 _atom_site_label
 _atom_site_symmetry_multiplicity
 _atom_site_fract_x
 _atom_site_fract_y
 _atom_site_fract_z
 _atom_site_occupancy
  Li  Li0  1  0.00000000  0.00000000  0.96653000  1.0
  Li  Li1  1  0.24951000  0.24929000  0.04164000  1.0
  Li  Li2  1  0.25000000  0.75000000  0.89960000  1.0
  Li  Li3  1  0.49994000  0.00001000  0.11243000  1.0
  Li  Li4  1  0.50000000  0.50000000  0.96653000  1.0
  Li  Li5  1  0.75000000  0.25000000  0.89960000  1.0
  Li  Li6  1  0.75080000  0.75060000  0.04166000  1.0
  Li  Li7  1  0.99999000  0.50009000  0.11242000  1.0
  Ag  Ag8  1  0.24956000  0.75046000  0.03954000  1.0
  Ag  Ag9  1  0.25000000  0.25000000  0.89960000  1.0
  Ag  Ag10  1  0.75000000  0.75000000  0.89960000  1.0
  Ag  Ag11  1  0.75115000  0.24882000  0.03971000  1.0
  Sb  Sb12  1  -0.00000000  0.50000000  0.96653000  1.0
  Sb  Sb13  1  0.00057000  0.99956000  0.10313000  1.0
  Sb  Sb14  1  0.50000000  0.00000000  0.96653000  1.0
  Sb  Sb15  1  0.50018000  0.49991000  0.10266000  1.0
  C  C16  1  0.98904000  0.00737000  0.28086000  1.0
  O  O17  1  0.00496000  0.99657000  0.32592000  1.0
