# generated using pymatgen
data_TiBe
_symmetry_space_group_name_H-M   'P 1'
_cell_length_a   2.93924500
_cell_length_b   2.93924500
_cell_length_c   24.40890000
_cell_angle_alpha   90.00000000
_cell_angle_beta   90.00000000
_cell_angle_gamma   90.00000000
_symmetry_Int_Tables_number   1
_chemical_formula_structural   TiBe
_chemical_formula_sum   'Ti2 Be2'
_cell_volume   210.87242108
_cell_formula_units_Z   2
loop_
 _symmetry_equiv_pos_site_id
 _symmetry_equiv_pos_as_xyz
  1  'x, y, z'
loop_
 _atom_site_type_symbol
 _atom_site_label
 _atom_site_symmetry_multiplicity
 _atom_site_fract_x
 _atom_site_fract_y
 _atom_site_fract_z
 _atom_site_occupancy
  Ti  Ti0  1  0.00000000  0.00000000  0.11088000  1.0
  Ti  Ti1  1  0.00000000  0.00000000  0.99046000  1.0
  Be  Be2  1  0.50000000  0.50000000  0.05067000  1.0
  Be  Be3  1  0.50000000  0.50000000  0.93025000  1.0
