# generated using pymatgen
data_Li8Y8Mg8In8C
_symmetry_space_group_name_H-M   'P 1'
_cell_length_a   10.02180000
_cell_length_b   7.08651000
_cell_length_c   27.51640000
_cell_angle_alpha   90.00000000
_cell_angle_beta   90.00000000
_cell_angle_gamma   90.00000000
_symmetry_Int_Tables_number   1
_chemical_formula_structural   Li8Y8Mg8In8C
_chemical_formula_sum   'Li8 Y8 Mg8 In8 C1'
_cell_volume   1954.20333395
_cell_formula_units_Z   1
loop_
 _symmetry_equiv_pos_site_id
 _symmetry_equiv_pos_as_xyz
  1  'x, y, z'
loop_
 _atom_site_type_symbol
 _atom_site_label
 _atom_site_symmetry_multiplicity
 _atom_site_fract_x
 _atom_site_fract_y
 _atom_site_fract_z
 _atom_site_occupancy
  Li  Li0  1  0.25000000  0.00000000  0.04553000  1.0
  Li  Li1  1  0.75000000  0.00000000  0.04553000  1.0
  Li  Li2  1  0.50000000  0.50000000  0.13658000  1.0
  Li  Li3  1  0.00000000  0.50000000  0.13658000  1.0
  Li  Li4  1  0.78678000  0.95501000  0.84740000  1.0
  Li  Li5  1  0.21322000  0.95501000  0.84740000  1.0
  Li  Li6  1  0.00000000  0.46900000  0.95221000  1.0
  Li  Li7  1  0.50000000  0.50268000  0.94725000  1.0
  Y  Y8  1  0.00000000  0.25000000  0.04553000  1.0
  Y  Y9  1  0.50000000  0.25000000  0.04553000  1.0
  Y  Y10  1  0.25000000  0.75000000  0.13658000  1.0
  Y  Y11  1  0.75000000  0.75000000  0.13658000  1.0
  Y  Y12  1  0.50000000  0.22352000  0.85838000  1.0
  Y  Y13  1  0.00000000  0.27132000  0.84658000  1.0
  Y  Y14  1  0.75745000  0.75194000  0.95135000  1.0
  Y  Y15  1  0.24255000  0.75194000  0.95135000  1.0
  Mg  Mg16  1  0.00000000  0.75000000  0.04553000  1.0
  Mg  Mg17  1  0.50000000  0.75000000  0.04553000  1.0
  Mg  Mg18  1  0.25000000  0.25000000  0.13658000  1.0
  Mg  Mg19  1  0.75000000  0.25000000  0.13658000  1.0
  Mg  Mg20  1  0.50000000  0.75796000  0.86057000  1.0
  Mg  Mg21  1  0.00000000  0.69222000  0.86400000  1.0
  Mg  Mg22  1  0.74147000  0.25887000  0.95227000  1.0
  Mg  Mg23  1  0.25853000  0.25887000  0.95227000  1.0
  In  In24  1  0.00000000  0.00000000  0.13658000  1.0
  In  In25  1  0.50000000  0.00000000  0.13658000  1.0
  In  In26  1  0.75000000  0.50000000  0.04553000  1.0
  In  In27  1  0.25000000  0.50000000  0.04553000  1.0
  In  In28  1  0.50000000  0.99342000  0.95470000  1.0
  In  In29  1  0.00000000  0.03857000  0.94980000  1.0
  In  In30  1  0.26459000  0.49817000  0.85710000  1.0
  In  In31  1  0.73541000  0.49817000  0.85710000  1.0
  C  C32  1  0.00000000  0.98089000  0.86713000  1.0
