# generated using pymatgen
data_Li8Y8Mg8In8C
_symmetry_space_group_name_H-M   Pm
_cell_length_a   7.08651000
_cell_length_b   10.02180000
_cell_length_c   27.51640000
_cell_angle_alpha   90.00000000
_cell_angle_beta   90.00000000
_cell_angle_gamma   90.00000000
_symmetry_Int_Tables_number   6
_chemical_formula_structural   Li8Y8Mg8In8C
_chemical_formula_sum   'Li8 Y8 Mg8 In8 C1'
_cell_volume   1954.20333395
_cell_formula_units_Z   1
loop_
 _symmetry_equiv_pos_site_id
 _symmetry_equiv_pos_as_xyz
  1  'x, y, z'
  2  'x, -y, z'
loop_
 _atom_site_type_symbol
 _atom_site_label
 _atom_site_symmetry_multiplicity
 _atom_site_fract_x
 _atom_site_fract_y
 _atom_site_fract_z
 _atom_site_occupancy
  Li  Li0  2  0.00000000  0.25000000  0.95447000  1.0
  Li  Li1  2  0.95501000  0.21322000  0.15260000  1.0
  Li  Li2  1  0.46900000  0.00000000  0.04779000  1.0
  Li  Li3  1  0.50000000  0.00000000  0.86342000  1.0
  Li  Li4  1  0.50000000  0.50000000  0.86342000  1.0
  Li  Li5  1  0.50268000  0.50000000  0.05275000  1.0
  Y  Y6  2  0.75000000  0.25000000  0.86342000  1.0
  Y  Y7  2  0.75194000  0.24255000  0.04865000  1.0
  Y  Y8  1  0.22352000  0.50000000  0.14162000  1.0
  Y  Y9  1  0.25000000  0.00000000  0.95447000  1.0
  Y  Y10  1  0.25000000  0.50000000  0.95447000  1.0
  Y  Y11  1  0.27132000  0.00000000  0.15342000  1.0
  Mg  Mg12  2  0.25000000  0.25000000  0.86342000  1.0
  Mg  Mg13  2  0.25887000  0.25853000  0.04773000  1.0
  Mg  Mg14  1  0.69222000  0.00000000  0.13600000  1.0
  Mg  Mg15  1  0.75000000  0.00000000  0.95447000  1.0
  Mg  Mg16  1  0.75000000  0.50000000  0.95447000  1.0
  Mg  Mg17  1  0.75796000  0.50000000  0.13943000  1.0
  In  In18  2  0.49817000  0.26459000  0.14290000  1.0
  In  In19  2  0.50000000  0.25000000  0.95447000  1.0
  In  In20  1  0.00000000  0.00000000  0.86342000  1.0
  In  In21  1  0.00000000  0.50000000  0.86342000  1.0
  In  In22  1  0.03857000  0.00000000  0.05020000  1.0
  In  In23  1  0.99342000  0.50000000  0.04530000  1.0
  C  C24  1  0.98089000  0.00000000  0.13287000  1.0
