# generated using pymatgen
data_Y16Cu16CO
_symmetry_space_group_name_H-M   'P 1'
_cell_length_a   6.99068000
_cell_length_b   9.88632000
_cell_length_c   27.41470000
_cell_angle_alpha   90.00000000
_cell_angle_beta   90.00000000
_cell_angle_gamma   90.00000000
_symmetry_Int_Tables_number   1
_chemical_formula_structural   Y16Cu16CO
_chemical_formula_sum   'Y16 Cu16 C1 O1'
_cell_volume   1894.68747410
_cell_formula_units_Z   1
loop_
 _symmetry_equiv_pos_site_id
 _symmetry_equiv_pos_as_xyz
  1  'x, y, z'
loop_
 _atom_site_type_symbol
 _atom_site_label
 _atom_site_symmetry_multiplicity
 _atom_site_fract_x
 _atom_site_fract_y
 _atom_site_fract_z
 _atom_site_occupancy
  Y  Y0  1  0.75000000  0.00000000  0.86477000  1.0
  Y  Y1  1  0.75000000  0.25000000  0.95492000  1.0
  Y  Y2  1  0.75044000  0.00000000  0.04381000  1.0
  Y  Y3  1  0.74879000  0.25037000  0.13656000  1.0
  Y  Y4  1  0.75000000  0.50000000  0.86477000  1.0
  Y  Y5  1  0.75000000  0.75000000  0.95492000  1.0
  Y  Y6  1  0.74964000  0.50000000  0.04454000  1.0
  Y  Y7  1  0.74879000  0.74963000  0.13656000  1.0
  Y  Y8  1  0.25000000  0.00000000  0.86477000  1.0
  Y  Y9  1  0.25000000  0.25000000  0.95492000  1.0
  Y  Y10  1  0.24956000  0.00000000  0.04381000  1.0
  Y  Y11  1  0.25121000  0.25037000  0.13656000  1.0
  Y  Y12  1  0.25000000  0.50000000  0.86477000  1.0
  Y  Y13  1  0.25000000  0.75000000  0.95492000  1.0
  Y  Y14  1  0.25036000  0.50000000  0.04454000  1.0
  Y  Y15  1  0.25121000  0.74963000  0.13656000  1.0
  Cu  Cu16  1  0.00000000  0.25000000  0.86477000  1.0
  Cu  Cu17  1  0.00000000  0.00000000  0.95492000  1.0
  Cu  Cu18  1  0.00000000  0.25122000  0.05033000  1.0
  Cu  Cu19  1  0.00000000  0.50000000  0.12736000  1.0
  Cu  Cu20  1  0.00000000  0.75000000  0.86477000  1.0
  Cu  Cu21  1  0.00000000  0.50000000  0.95492000  1.0
  Cu  Cu22  1  0.00000000  0.74878000  0.05033000  1.0
  Cu  Cu23  1  0.00000000  0.00000000  0.13095000  1.0
  Cu  Cu24  1  0.50000000  0.25000000  0.86477000  1.0
  Cu  Cu25  1  0.50000000  0.00000000  0.95492000  1.0
  Cu  Cu26  1  0.50000000  0.24913000  0.05009000  1.0
  Cu  Cu27  1  0.50000000  0.50000000  0.12769000  1.0
  Cu  Cu28  1  0.50000000  0.75000000  0.86477000  1.0
  Cu  Cu29  1  0.50000000  0.50000000  0.95492000  1.0
  Cu  Cu30  1  0.50000000  0.75087000  0.05009000  1.0
  Cu  Cu31  1  0.50000000  0.00000000  0.12638000  1.0
  C  C32  1  0.00000000  0.00000000  0.19877000  1.0
  O  O33  1  0.00000000  0.00000000  0.24161000  1.0
