# generated using pymatgen
data_Li4In4Cu4Ge4CO
_symmetry_space_group_name_H-M   P1
_cell_length_a   6.49386000
_cell_length_b   6.49386000
_cell_length_c   24.87040000
_cell_angle_alpha   90.00000000
_cell_angle_beta   90.00000000
_cell_angle_gamma   90.00000000
_symmetry_Int_Tables_number   1
_chemical_formula_structural   Li4In4Cu4Ge4CO
_chemical_formula_sum   'Li4 In4 Cu4 Ge4 C1 O1'
_cell_volume   1048.79018228
_cell_formula_units_Z   1
loop_
 _symmetry_equiv_pos_site_id
 _symmetry_equiv_pos_as_xyz
  1  'x, y, z'
loop_
 _atom_site_type_symbol
 _atom_site_label
 _atom_site_symmetry_multiplicity
 _atom_site_fract_x
 _atom_site_fract_y
 _atom_site_fract_z
 _atom_site_occupancy
  Li  Li0  1  0.00000000  0.50000000  0.90208000  1.0
  Li  Li1  1  0.03661000  0.96349000  0.03955000  1.0
  Li  Li2  1  0.46333000  0.53650000  0.03955000  1.0
  Li  Li3  1  0.50000000  0.00000000  0.90208000  1.0
  In  In4  1  0.24999000  0.74998000  0.13520000  1.0
  In  In5  1  0.25000000  0.25000000  0.96736000  1.0
  In  In6  1  0.74995000  0.24994000  0.09265000  1.0
  In  In7  1  0.75000000  0.75000000  0.96736000  1.0
  Cu  Cu8  1  0.00000000  0.00000000  0.90208000  1.0
  Cu  Cu9  1  0.03498000  0.53486000  0.03353000  1.0
  Cu  Cu10  1  0.46491000  0.96500000  0.03351000  1.0
  Cu  Cu11  1  0.50000000  0.50000000  0.90208000  1.0
  Ge  Ge12  1  0.25000000  0.24998000  0.09098000  1.0
  Ge  Ge13  1  0.25000000  0.75000000  0.96736000  1.0
  Ge  Ge14  1  0.74998000  0.75000000  0.09094000  1.0
  Ge  Ge15  1  0.75000000  0.25000000  0.96736000  1.0
  C  C16  1  0.75051000  0.25060000  0.22986000  1.0
  O  O17  1  0.74993000  0.24991000  0.27558000  1.0
