# generated using pymatgen
data_Sc4In4Ge4Pd4CO
_symmetry_space_group_name_H-M   'P 1'
_cell_length_a   5.71274000
_cell_length_b   9.28368000
_cell_length_c   24.27220000
_cell_angle_alpha   90.00000000
_cell_angle_beta   90.00000000
_cell_angle_gamma   90.00000000
_symmetry_Int_Tables_number   1
_chemical_formula_structural   Sc4In4Ge4Pd4CO
_chemical_formula_sum   'Sc4 In4 Ge4 Pd4 C1 O1'
_cell_volume   1287.28219707
_cell_formula_units_Z   1
loop_
 _symmetry_equiv_pos_site_id
 _symmetry_equiv_pos_as_xyz
  1  'x, y, z'
loop_
 _atom_site_type_symbol
 _atom_site_label
 _atom_site_symmetry_multiplicity
 _atom_site_fract_x
 _atom_site_fract_y
 _atom_site_fract_z
 _atom_site_occupancy
  Sc  Sc0  1  0.42972000  0.99939000  0.08195000  1.0
  Sc  Sc1  1  0.03802000  0.00000000  0.97066000  1.0
  Sc  Sc2  1  0.49868000  0.49904000  0.08437000  1.0
  Sc  Sc3  1  0.03802000  0.50000000  0.97066000  1.0
  In  In4  1  0.75232000  0.74099000  0.02979000  1.0
  In  In5  1  0.30703000  0.75000000  0.91199000  1.0
  In  In6  1  0.74813000  0.26099000  0.02964000  1.0
  In  In7  1  0.30703000  0.25000000  0.91199000  1.0
  Ge  Ge8  1  0.92899000  0.99888000  0.09154000  1.0
  Ge  Ge9  1  0.53802000  0.00000000  0.97066000  1.0
  Ge  Ge10  1  0.00086000  0.49996000  0.08111000  1.0
  Ge  Ge11  1  0.53802000  0.50000000  0.97066000  1.0
  Pd  Pd12  1  0.21643000  0.76174000  0.04092000  1.0
  Pd  Pd13  1  0.80703000  0.75000000  0.91199000  1.0
  Pd  Pd14  1  0.21833000  0.23931000  0.04086000  1.0
  Pd  Pd15  1  0.80703000  0.25000000  0.91199000  1.0
  C  C16  1  0.16525000  0.99998000  0.16513000  1.0
  O  O17  1  0.16719000  0.00012000  0.21288000  1.0
