# generated using pymatgen
data_Sc4In4Ge4Pd4CO
_symmetry_space_group_name_H-M   P1
_cell_length_a   5.71274000
_cell_length_b   9.28368000
_cell_length_c   24.27220000
_cell_angle_alpha   90.00000000
_cell_angle_beta   90.00000000
_cell_angle_gamma   90.00000000
_symmetry_Int_Tables_number   1
_chemical_formula_structural   Sc4In4Ge4Pd4CO
_chemical_formula_sum   'Sc4 In4 Ge4 Pd4 C1 O1'
_cell_volume   1287.28219707
_cell_formula_units_Z   1
loop_
 _symmetry_equiv_pos_site_id
 _symmetry_equiv_pos_as_xyz
  1  'x, y, z'
loop_
 _atom_site_type_symbol
 _atom_site_label
 _atom_site_symmetry_multiplicity
 _atom_site_fract_x
 _atom_site_fract_y
 _atom_site_fract_z
 _atom_site_occupancy
  Sc  Sc0  1  0.50132000  0.50096000  0.08437000  1.0
  Sc  Sc1  1  0.57028000  0.00061000  0.08195000  1.0
  Sc  Sc2  1  0.96198000  0.00000000  0.97066000  1.0
  Sc  Sc3  1  0.96198000  0.50000000  0.97066000  1.0
  In  In4  1  0.24768000  0.25901000  0.02979000  1.0
  In  In5  1  0.25187000  0.73901000  0.02964000  1.0
  In  In6  1  0.69297000  0.25000000  0.91199000  1.0
  In  In7  1  0.69297000  0.75000000  0.91199000  1.0
  Ge  Ge8  1  0.07101000  0.00112000  0.09154000  1.0
  Ge  Ge9  1  0.46198000  0.00000000  0.97066000  1.0
  Ge  Ge10  1  0.46198000  0.50000000  0.97066000  1.0
  Ge  Ge11  1  0.99914000  0.50004000  0.08111000  1.0
  Pd  Pd12  1  0.19297000  0.25000000  0.91199000  1.0
  Pd  Pd13  1  0.19297000  0.75000000  0.91199000  1.0
  Pd  Pd14  1  0.78167000  0.76069000  0.04086000  1.0
  Pd  Pd15  1  0.78357000  0.23826000  0.04092000  1.0
  C  C16  1  0.83475000  0.00002000  0.16513000  1.0
  O  O17  1  0.83281000  0.99988000  0.21288000  1.0
