# generated using pymatgen
data_ZrRh
_symmetry_space_group_name_H-M   'P 1'
_cell_length_a   3.32512000
_cell_length_b   3.32512000
_cell_length_c   24.98770000
_cell_angle_alpha   90.00000000
_cell_angle_beta   90.00000000
_cell_angle_gamma   90.00000000
_symmetry_Int_Tables_number   1
_chemical_formula_structural   ZrRh
_chemical_formula_sum   'Zr2 Rh2'
_cell_volume   276.27458136
_cell_formula_units_Z   2
loop_
 _symmetry_equiv_pos_site_id
 _symmetry_equiv_pos_as_xyz
  1  'x, y, z'
loop_
 _atom_site_type_symbol
 _atom_site_label
 _atom_site_symmetry_multiplicity
 _atom_site_fract_x
 _atom_site_fract_y
 _atom_site_fract_z
 _atom_site_occupancy
  Zr  Zr0  1  0.50000000  0.50000000  0.03127000  1.0
  Zr  Zr1  1  0.50000000  0.50000000  0.89820000  1.0
  Rh  Rh2  1  0.00000000  0.00000000  0.09780000  1.0
  Rh  Rh3  1  0.00000000  0.00000000  0.96473000  1.0
