# generated using pymatgen
data_ZrOs
_symmetry_space_group_name_H-M   Pmm2
_cell_length_a   3.28869000
_cell_length_b   4.65091000
_cell_length_c   26.97640000
_cell_angle_alpha   90.00000000
_cell_angle_beta   90.00000000
_cell_angle_gamma   90.00000000
_symmetry_Int_Tables_number   25
_chemical_formula_structural   ZrOs
_chemical_formula_sum   'Zr4 Os4'
_cell_volume   412.61486114
_cell_formula_units_Z   4
loop_
 _symmetry_equiv_pos_site_id
 _symmetry_equiv_pos_as_xyz
  1  'x, y, z'
  2  '-x, -y, z'
  3  '-x, y, z'
  4  'x, -y, z'
loop_
 _atom_site_type_symbol
 _atom_site_label
 _atom_site_symmetry_multiplicity
 _atom_site_fract_x
 _atom_site_fract_y
 _atom_site_fract_z
 _atom_site_occupancy
  Zr  Zr0  1  0.50000000  0.00000000  0.13105000  1.0
  Zr  Zr1  1  0.50000000  0.00000000  0.95690000  1.0
  Zr  Zr2  1  0.50000000  0.50000000  0.04459000  1.0
  Zr  Zr3  1  0.50000000  0.50000000  0.87069000  1.0
  Os  Os4  1  0.00000000  0.00000000  0.04350000  1.0
  Os  Os5  1  0.00000000  0.00000000  0.87069000  1.0
  Os  Os6  1  0.00000000  0.50000000  0.12378500  1.0
  Os  Os7  1  0.00000000  0.50000000  0.95690000  1.0
