# generated using pymatgen
data_Li2InPd
_symmetry_space_group_name_H-M   'P 1'
_cell_length_a   6.46446000
_cell_length_b   4.57106500
_cell_length_c   26.85660000
_cell_angle_alpha   90.00000000
_cell_angle_beta   90.00000000
_cell_angle_gamma   90.00000000
_symmetry_Int_Tables_number   1
_chemical_formula_structural   Li2InPd
_chemical_formula_sum   'Li8 In4 Pd4'
_cell_volume   793.59821140
_cell_formula_units_Z   4
loop_
 _symmetry_equiv_pos_site_id
 _symmetry_equiv_pos_as_xyz
  1  'x, y, z'
loop_
 _atom_site_type_symbol
 _atom_site_label
 _atom_site_symmetry_multiplicity
 _atom_site_fract_x
 _atom_site_fract_y
 _atom_site_fract_z
 _atom_site_occupancy
  Li  Li0  1  0.00000000  0.50000000  0.95745000  1.0
  Li  Li1  1  0.50000000  0.00000000  0.87235000  1.0
  Li  Li2  1  0.75000000  0.50000000  0.87235000  1.0
  Li  Li3  1  0.25000000  0.00000000  0.95745000  1.0
  Li  Li4  1  0.99449500  0.50000000  0.12883000  1.0
  Li  Li5  1  0.50032000  0.00000000  0.04173000  1.0
  Li  Li6  1  0.75112000  0.50000000  0.04051000  1.0
  Li  Li7  1  0.27056000  0.00000000  0.12694000  1.0
  In  In8  1  0.75000000  0.00000000  0.95745000  1.0
  In  In9  1  0.25000000  0.50000000  0.87235000  1.0
  In  In10  1  0.74217000  0.00000000  0.13276000  1.0
  In  In11  1  0.24108000  0.50000000  0.04172000  1.0
  Pd  Pd12  1  0.00000000  0.00000000  0.87235000  1.0
  Pd  Pd13  1  0.50000000  0.50000000  0.95745000  1.0
  Pd  Pd14  1  0.99286000  0.00000000  0.04520000  1.0
  Pd  Pd15  1  0.51478000  0.50000000  0.11838000  1.0
