# generated using pymatgen
data_Cu16Pd16C
_symmetry_space_group_name_H-M   'P 1'
_cell_length_a   6.09666000
_cell_length_b   8.62198000
_cell_length_c   26.46650000
_cell_angle_alpha   90.00000000
_cell_angle_beta   90.00000000
_cell_angle_gamma   90.00000000
_symmetry_Int_Tables_number   1
_chemical_formula_structural   Cu16Pd16C
_chemical_formula_sum   'Cu16 Pd16 C1'
_cell_volume   1391.21899865
_cell_formula_units_Z   1
loop_
 _symmetry_equiv_pos_site_id
 _symmetry_equiv_pos_as_xyz
  1  'x, y, z'
loop_
 _atom_site_type_symbol
 _atom_site_label
 _atom_site_symmetry_multiplicity
 _atom_site_fract_x
 _atom_site_fract_y
 _atom_site_fract_z
 _atom_site_occupancy
  Cu  Cu0  1  0.00000000  0.00000000  0.87784000  1.0
  Cu  Cu1  1  0.00000000  0.25000000  0.95928000  1.0
  Cu  Cu2  1  0.00000000  0.00000000  0.03976000  1.0
  Cu  Cu3  1  0.00000000  0.23394000  0.12726000  1.0
  Cu  Cu4  1  0.00000000  0.50000000  0.87784000  1.0
  Cu  Cu5  1  0.00000000  0.75000000  0.95928000  1.0
  Cu  Cu6  1  0.00000000  0.50000000  0.03917000  1.0
  Cu  Cu7  1  0.00000000  0.76606000  0.12726000  1.0
  Cu  Cu8  1  0.50000000  0.00000000  0.87784000  1.0
  Cu  Cu9  1  0.50000000  0.25000000  0.95928000  1.0
  Cu  Cu10  1  0.50000000  0.00000000  0.03678000  1.0
  Cu  Cu11  1  0.50000000  0.26109000  0.12235000  1.0
  Cu  Cu12  1  0.50000000  0.50000000  0.87784000  1.0
  Cu  Cu13  1  0.50000000  0.75000000  0.95928000  1.0
  Cu  Cu14  1  0.50000000  0.50000000  0.04171000  1.0
  Cu  Cu15  1  0.50000000  0.73891000  0.12235000  1.0
  Pd  Pd16  1  0.25000000  0.25000000  0.87784000  1.0
  Pd  Pd17  1  0.25000000  0.00000000  0.95928000  1.0
  Pd  Pd18  1  0.24767000  0.24999000  0.04199000  1.0
  Pd  Pd19  1  0.27376000  0.00000000  0.11996000  1.0
  Pd  Pd20  1  0.25000000  0.75000000  0.87784000  1.0
  Pd  Pd21  1  0.25000000  0.50000000  0.95928000  1.0
  Pd  Pd22  1  0.24767000  0.75001000  0.04199000  1.0
  Pd  Pd23  1  0.23595000  0.50000000  0.12090000  1.0
  Pd  Pd24  1  0.75000000  0.25000000  0.87784000  1.0
  Pd  Pd25  1  0.75000000  0.00000000  0.95928000  1.0
  Pd  Pd26  1  0.75233000  0.24999000  0.04199000  1.0
  Pd  Pd27  1  0.72624000  0.00000000  0.11996000  1.0
  Pd  Pd28  1  0.75000000  0.75000000  0.87784000  1.0
  Pd  Pd29  1  0.75000000  0.50000000  0.95928000  1.0
  Pd  Pd30  1  0.75233000  0.75001000  0.04199000  1.0
  Pd  Pd31  1  0.76405000  0.50000000  0.12090000  1.0
  C  C32  1  0.00000000  0.00000000  0.15337000  1.0
