# generated using pymatgen
data_Li8Sc8Ge8Pd8CO
_symmetry_space_group_name_H-M   'P 1'
_cell_length_a   8.92368000
_cell_length_b   6.30999000
_cell_length_c   26.69280000
_cell_angle_alpha   90.00000000
_cell_angle_beta   90.00000000
_cell_angle_gamma   90.00000000
_symmetry_Int_Tables_number   1
_chemical_formula_structural   Li8Sc8Ge8Pd8CO
_chemical_formula_sum   'Li8 Sc8 Ge8 Pd8 C1 O1'
_cell_volume   1503.02703275
_cell_formula_units_Z   1
loop_
 _symmetry_equiv_pos_site_id
 _symmetry_equiv_pos_as_xyz
  1  'x, y, z'
loop_
 _atom_site_type_symbol
 _atom_site_label
 _atom_site_symmetry_multiplicity
 _atom_site_fract_x
 _atom_site_fract_y
 _atom_site_fract_z
 _atom_site_occupancy
  Li  Li0  1  0.75001000  0.75000000  0.04179000  1.0
  Li  Li1  1  0.24999000  0.75000000  0.04179000  1.0
  Li  Li2  1  0.00000000  0.25000000  0.12537000  1.0
  Li  Li3  1  0.50000000  0.25000000  0.12537000  1.0
  Li  Li4  1  0.24545000  0.59858000  0.82701000  1.0
  Li  Li5  1  0.75455000  0.59858000  0.82701000  1.0
  Li  Li6  1  0.50000000  0.24311000  0.95529000  1.0
  Li  Li7  1  0.00000000  0.24597000  0.95636000  1.0
  Sc  Sc8  1  0.00000000  0.00000000  0.04179000  1.0
  Sc  Sc9  1  0.50000000  0.00000000  0.04179000  1.0
  Sc  Sc10  1  0.25001000  0.50000000  0.12537000  1.0
  Sc  Sc11  1  0.74999000  0.50000000  0.12537000  1.0
  Sc  Sc12  1  0.50000000  0.96306000  0.87433000  1.0
  Sc  Sc13  1  0.00000000  0.96218000  0.87507000  1.0
  Sc  Sc14  1  0.74874000  0.50897000  0.95192000  1.0
  Sc  Sc15  1  0.25126000  0.50897000  0.95192000  1.0
  Ge  Ge16  1  0.75001000  0.00000000  0.12537000  1.0
  Ge  Ge17  1  0.24999000  0.00000000  0.12537000  1.0
  Ge  Ge18  1  0.50000000  0.50000000  0.04179000  1.0
  Ge  Ge19  1  0.00000000  0.50000000  0.04179000  1.0
  Ge  Ge20  1  0.24983000  0.99186000  0.95807000  1.0
  Ge  Ge21  1  0.75017000  0.99186000  0.95807000  1.0
  Ge  Ge22  1  0.00000000  0.49076000  0.87492000  1.0
  Ge  Ge23  1  0.50000000  0.49636000  0.87280000  1.0
  Pd  Pd24  1  0.75001000  0.25000000  0.04179000  1.0
  Pd  Pd25  1  0.24999000  0.25000000  0.04179000  1.0
  Pd  Pd26  1  0.00000000  0.75000000  0.12537000  1.0
  Pd  Pd27  1  0.50000000  0.75000000  0.12537000  1.0
  Pd  Pd28  1  0.25361000  0.22933000  0.87855000  1.0
  Pd  Pd29  1  0.74639000  0.22933000  0.87855000  1.0
  Pd  Pd30  1  0.50000000  0.75263000  0.96029000  1.0
  Pd  Pd31  1  0.00000000  0.74503000  0.96165000  1.0
  C  C32  1  0.00000000  0.96522000  0.78975000  1.0
  O  O33  1  0.00000000  0.97936000  0.74645000  1.0
