# generated using pymatgen
data_Li4Sn4Ge4Pd4C
_symmetry_space_group_name_H-M   'P 1'
_cell_length_a   6.61012000
_cell_length_b   6.61012000
_cell_length_c   24.95760000
_cell_angle_alpha   90.00000000
_cell_angle_beta   90.00000000
_cell_angle_gamma   90.00000000
_symmetry_Int_Tables_number   1
_chemical_formula_structural   Li4Sn4Ge4Pd4C
_chemical_formula_sum   'Li4 Sn4 Ge4 Pd4 C1'
_cell_volume   1090.48954806
_cell_formula_units_Z   1
loop_
 _symmetry_equiv_pos_site_id
 _symmetry_equiv_pos_as_xyz
  1  'x, y, z'
loop_
 _atom_site_type_symbol
 _atom_site_label
 _atom_site_symmetry_multiplicity
 _atom_site_fract_x
 _atom_site_fract_y
 _atom_site_fract_z
 _atom_site_occupancy
  Li  Li0  1  0.75000000  0.25000000  0.96689000  1
  Li  Li1  1  0.27596500  0.27596500  0.10678000  1
  Li  Li2  1  0.72403500  0.72403500  0.10678000  1
  Li  Li3  1  0.25000000  0.75000000  0.96689000  1
  Sn  Sn4  1  0.50000000  0.50000000  0.90068000  1
  Sn  Sn5  1  1.00000000  0.50000000  0.03085000  1
  Sn  Sn6  1  0.50000000  0.00000000  0.03085000  1
  Sn  Sn7  1  0.00000000  0.00000000  0.90068000  1
  Ge  Ge8  1  1.00000000  0.50000000  0.90068000  1
  Ge  Ge9  1  0.50000000  0.50000000  0.02002000  1
  Ge  Ge10  1  0.00000000  0.00000000  0.04331000  1
  Ge  Ge11  1  0.50000000  0.00000000  0.90068000  1
  Pd  Pd12  1  0.74998000  0.74998000  0.96689000  1
  Pd  Pd13  1  0.26916500  0.73083500  0.08561000  1
  Pd  Pd14  1  0.73083500  0.26916500  0.08561000  1
  Pd  Pd15  1  0.25002000  0.25002000  0.96689000  1
  C  C16  1  0.50000000  0.50000000  0.09772000  1
