# generated using pymatgen
data_Mg16Sc16C
_symmetry_space_group_name_H-M   'P 1'
_cell_length_a   10.17860000
_cell_length_b   7.19733000
_cell_length_c   27.63390000
_cell_angle_alpha   90.00000000
_cell_angle_beta   90.00000000
_cell_angle_gamma   90.00000000
_symmetry_Int_Tables_number   1
_chemical_formula_structural   Mg16Sc16C
_chemical_formula_sum   'Mg16 Sc16 C1'
_cell_volume   2024.42478200
_cell_formula_units_Z   1
loop_
 _symmetry_equiv_pos_site_id
 _symmetry_equiv_pos_as_xyz
  1  'x, y, z'
loop_
 _atom_site_type_symbol
 _atom_site_label
 _atom_site_symmetry_multiplicity
 _atom_site_fract_x
 _atom_site_fract_y
 _atom_site_fract_z
 _atom_site_occupancy
  Mg  Mg0  1  0.00000000  0.75000000  0.13813000  1.0
  Mg  Mg1  1  0.25000000  0.75000000  0.04604000  1.0
  Mg  Mg2  1  0.50012000  0.74062000  0.95434000  1.0
  Mg  Mg3  1  0.25056000  0.79859000  0.85892000  1.0
  Mg  Mg4  1  0.50000000  0.75000000  0.13813000  1.0
  Mg  Mg5  1  0.75000000  0.75000000  0.04604000  1.0
  Mg  Mg6  1  0.99934000  0.74048000  0.95433000  1.0
  Mg  Mg7  1  0.74950000  0.71936000  0.85905000  1.0
  Mg  Mg8  1  0.00000000  0.25000000  0.13813000  1.0
  Mg  Mg9  1  0.25000000  0.25000000  0.04604000  1.0
  Mg  Mg10  1  0.50012000  0.25938000  0.95434000  1.0
  Mg  Mg11  1  0.25056000  0.20141000  0.85892000  1.0
  Mg  Mg12  1  0.50000000  0.25000000  0.13813000  1.0
  Mg  Mg13  1  0.75000000  0.25000000  0.04604000  1.0
  Mg  Mg14  1  0.99934000  0.25952000  0.95433000  1.0
  Mg  Mg15  1  0.74950000  0.28064000  0.85905000  1.0
  Sc  Sc16  1  0.25000000  0.50000000  0.13813000  1.0
  Sc  Sc17  1  0.00000000  0.50000000  0.04604000  1.0
  Sc  Sc18  1  0.24993000  0.50000000  0.94412000  1.0
  Sc  Sc19  1  0.46046000  0.50000000  0.85771000  1.0
  Sc  Sc20  1  0.75000000  0.50000000  0.13813000  1.0
  Sc  Sc21  1  0.50000000  0.50000000  0.04604000  1.0
  Sc  Sc22  1  0.74971000  0.50000000  0.95544000  1.0
  Sc  Sc23  1  0.04003000  0.50000000  0.85770000  1.0
  Sc  Sc24  1  0.25000000  0.00000000  0.13813000  1.0
  Sc  Sc25  1  0.00000000  0.00000000  0.04604000  1.0
  Sc  Sc26  1  0.24979000  0.00000000  0.95814000  1.0
  Sc  Sc27  1  0.52461000  0.00000000  0.86986000  1.0
  Sc  Sc28  1  0.75000000  0.00000000  0.13813000  1.0
  Sc  Sc29  1  0.50000000  0.00000000  0.04604000  1.0
  Sc  Sc30  1  0.74986000  0.00000000  0.95185000  1.0
  Sc  Sc31  1  0.97547000  0.00000000  0.86986000  1.0
  C  C32  1  0.25036000  0.50000000  0.86363000  1.0
