# generated using pymatgen
data_Mg16Sc16C
_symmetry_space_group_name_H-M   Pm
_cell_length_a   10.17860000
_cell_length_b   7.19733000
_cell_length_c   27.63390000
_cell_angle_alpha   90.00000000
_cell_angle_beta   90.00000000
_cell_angle_gamma   90.00000000
_symmetry_Int_Tables_number   6
_chemical_formula_structural   Mg16Sc16C
_chemical_formula_sum   'Mg16 Sc16 C1'
_cell_volume   2024.42478200
_cell_formula_units_Z   1
loop_
 _symmetry_equiv_pos_site_id
 _symmetry_equiv_pos_as_xyz
  1  'x, y, z'
  2  'x, -y, z'
loop_
 _atom_site_type_symbol
 _atom_site_label
 _atom_site_symmetry_multiplicity
 _atom_site_fract_x
 _atom_site_fract_y
 _atom_site_fract_z
 _atom_site_occupancy
  Mg  Mg0  2  0.00000000  0.25000000  0.86187000  1.0
  Mg  Mg1  2  0.25000000  0.25000000  0.95396000  1.0
  Mg  Mg2  2  0.25056000  0.20141000  0.14108000  1.0
  Mg  Mg3  2  0.50000000  0.25000000  0.86187000  1.0
  Mg  Mg4  2  0.50012000  0.25938000  0.04566000  1.0
  Mg  Mg5  2  0.74950000  0.28064000  0.14095000  1.0
  Mg  Mg6  2  0.75000000  0.25000000  0.95396000  1.0
  Mg  Mg7  2  0.99934000  0.25952000  0.04567000  1.0
  Sc  Sc8  1  0.00000000  0.00000000  0.95396000  1.0
  Sc  Sc9  1  0.00000000  0.50000000  0.95396000  1.0
  Sc  Sc10  1  0.04003000  0.50000000  0.14230000  1.0
  Sc  Sc11  1  0.24979000  0.00000000  0.04186000  1.0
  Sc  Sc12  1  0.24993000  0.50000000  0.05588000  1.0
  Sc  Sc13  1  0.25000000  0.00000000  0.86187000  1.0
  Sc  Sc14  1  0.25000000  0.50000000  0.86187000  1.0
  Sc  Sc15  1  0.46046000  0.50000000  0.14229000  1.0
  Sc  Sc16  1  0.50000000  0.00000000  0.95396000  1.0
  Sc  Sc17  1  0.50000000  0.50000000  0.95396000  1.0
  Sc  Sc18  1  0.52461000  0.00000000  0.13014000  1.0
  Sc  Sc19  1  0.74971000  0.50000000  0.04456000  1.0
  Sc  Sc20  1  0.74986000  0.00000000  0.04815000  1.0
  Sc  Sc21  1  0.75000000  0.00000000  0.86187000  1.0
  Sc  Sc22  1  0.75000000  0.50000000  0.86187000  1.0
  Sc  Sc23  1  0.97547000  0.00000000  0.13014000  1.0
  C  C24  1  0.25036000  0.50000000  0.13637000  1.0
