# generated using pymatgen
data_Hf8In8Au16CO
_symmetry_space_group_name_H-M   'P 1'
_cell_length_a   9.65379000
_cell_length_b   6.82626000
_cell_length_c   27.24030000
_cell_angle_alpha   90.00000000
_cell_angle_beta   90.00000000
_cell_angle_gamma   90.00000000
_symmetry_Int_Tables_number   1
_chemical_formula_structural   Hf8In8Au16CO
_chemical_formula_sum   'Hf8 In8 Au16 C1 O1'
_cell_volume   1795.11617130
_cell_formula_units_Z   1
loop_
 _symmetry_equiv_pos_site_id
 _symmetry_equiv_pos_as_xyz
  1  'x, y, z'
loop_
 _atom_site_type_symbol
 _atom_site_label
 _atom_site_symmetry_multiplicity
 _atom_site_fract_x
 _atom_site_fract_y
 _atom_site_fract_z
 _atom_site_occupancy
  Hf  Hf0  1  0.00000000  0.00000000  0.13290000  1.0
  Hf  Hf1  1  0.25000000  0.50000000  0.04430000  1.0
  Hf  Hf2  1  0.75000000  0.50000000  0.04430000  1.0
  Hf  Hf3  1  0.50000000  0.00000000  0.13290000  1.0
  Hf  Hf4  1  0.50000000  0.99831000  0.95335000  1.0
  Hf  Hf5  1  0.75793000  0.48228000  0.87604000  1.0
  Hf  Hf6  1  0.24207000  0.48228000  0.87604000  1.0
  Hf  Hf7  1  0.00000000  0.04938000  0.93144000  1.0
  In  In8  1  0.75000000  0.00000000  0.04430000  1.0
  In  In9  1  0.00000000  0.50000000  0.13290000  1.0
  In  In10  1  0.25000000  0.00000000  0.04430000  1.0
  In  In11  1  0.50000000  0.50000000  0.13290000  1.0
  In  In12  1  0.26547000  0.97553000  0.85170000  1.0
  In  In13  1  0.50000000  0.51456000  0.95693000  1.0
  In  In14  1  0.73453000  0.97553000  0.85170000  1.0
  In  In15  1  0.00000000  0.50852000  0.95834000  1.0
  Au  Au16  1  0.00000000  0.25000000  0.04430000  1.0
  Au  Au17  1  0.50000000  0.75000000  0.04430000  1.0
  Au  Au18  1  0.00000000  0.75000000  0.04430000  1.0
  Au  Au19  1  0.50000000  0.25000000  0.04430000  1.0
  Au  Au20  1  0.75000000  0.75000000  0.13290000  1.0
  Au  Au21  1  0.25000000  0.25000000  0.13290000  1.0
  Au  Au22  1  0.75000000  0.25000000  0.13290000  1.0
  Au  Au23  1  0.25000000  0.75000000  0.13290000  1.0
  Au  Au24  1  0.50000000  0.25398000  0.86766000  1.0
  Au  Au25  1  0.00000000  0.71798000  0.86238000  1.0
  Au  Au26  1  0.50000000  0.68883000  0.85673000  1.0
  Au  Au27  1  0.00000000  0.23953000  0.84254000  1.0
  Au  Au28  1  0.24051000  0.77780000  0.95216000  1.0
  Au  Au29  1  0.74352000  0.24093000  0.95706000  1.0
  Au  Au30  1  0.25648000  0.24093000  0.95706000  1.0
  Au  Au31  1  0.75949000  0.77780000  0.95216000  1.0
  C  C32  1  0.00000000  0.27402000  0.76295000  1.0
  O  O33  1  0.00000000  0.23715000  0.72196000  1.0
