# generated using pymatgen
data_Sc8Ga8Ni16C
_symmetry_space_group_name_H-M   'P 1'
_cell_length_a   6.08368000
_cell_length_b   8.60362000
_cell_length_c   26.45270000
_cell_angle_alpha   90.00000000
_cell_angle_beta   90.00000000
_cell_angle_gamma   90.00000000
_symmetry_Int_Tables_number   1
_chemical_formula_structural   Sc8Ga8Ni16C
_chemical_formula_sum   'Sc8 Ga8 Ni16 C1'
_cell_volume   1384.57851839
_cell_formula_units_Z   1
loop_
 _symmetry_equiv_pos_site_id
 _symmetry_equiv_pos_as_xyz
  1  'x, y, z'
loop_
 _atom_site_type_symbol
 _atom_site_label
 _atom_site_symmetry_multiplicity
 _atom_site_fract_x
 _atom_site_fract_y
 _atom_site_fract_z
 _atom_site_occupancy
  Sc  Sc0  1  0.00000000  0.00000000  0.87803000  1.0
  Sc  Sc1  1  0.50000000  0.25000000  0.95934000  1.0
  Sc  Sc2  1  0.50000000  0.75000000  0.95934000  1.0
  Sc  Sc3  1  0.00000000  0.50000000  0.87803000  1.0
  Sc  Sc4  1  0.00000000  0.50000000  0.03808000  1.0
  Sc  Sc5  1  0.50000000  0.73468000  0.12770000  1.0
  Sc  Sc6  1  0.50000000  0.26532000  0.12770000  1.0
  Sc  Sc7  1  0.00000000  0.00000000  0.04158000  1.0
  Ga  Ga8  1  0.00000000  0.75000000  0.95934000  1.0
  Ga  Ga9  1  0.50000000  0.00000000  0.87803000  1.0
  Ga  Ga10  1  0.00000000  0.25000000  0.95934000  1.0
  Ga  Ga11  1  0.50000000  0.50000000  0.87803000  1.0
  Ga  Ga12  1  0.00000000  0.24871000  0.12182000  1.0
  Ga  Ga13  1  0.50000000  0.50000000  0.04415000  1.0
  Ga  Ga14  1  0.00000000  0.75129000  0.12182000  1.0
  Ga  Ga15  1  0.50000000  0.00000000  0.03947000  1.0
  Ni  Ni16  1  0.25000000  0.00000000  0.95934000  1.0
  Ni  Ni17  1  0.75000000  0.50000000  0.95934000  1.0
  Ni  Ni18  1  0.75000000  0.00000000  0.95934000  1.0
  Ni  Ni19  1  0.25000000  0.50000000  0.95934000  1.0
  Ni  Ni20  1  0.75000000  0.75000000  0.87803000  1.0
  Ni  Ni21  1  0.25000000  0.25000000  0.87803000  1.0
  Ni  Ni22  1  0.25000000  0.75000000  0.87803000  1.0
  Ni  Ni23  1  0.75000000  0.25000000  0.87803000  1.0
  Ni  Ni24  1  0.21516000  0.50000000  0.11832000  1.0
  Ni  Ni25  1  0.71153000  0.00000000  0.12056000  1.0
  Ni  Ni26  1  0.78484000  0.50000000  0.11832000  1.0
  Ni  Ni27  1  0.28847000  0.00000000  0.12056000  1.0
  Ni  Ni28  1  0.73679000  0.25118000  0.04301000  1.0
  Ni  Ni29  1  0.26321000  0.74882000  0.04301000  1.0
  Ni  Ni30  1  0.26321000  0.25118000  0.04301000  1.0
  Ni  Ni31  1  0.73679000  0.74882000  0.04301000  1.0
  C  C32  1  0.00000000  0.00000000  0.13412000  1.0
