data_image0
_chemical_formula_structural       In8Sb8CO
_chemical_formula_sum              "In8 Sb8 C1 O1"
_cell_length_a       7.67805
_cell_length_b       7.67805
_cell_length_c       25.7585
_cell_angle_alpha    90
_cell_angle_beta     90
_cell_angle_gamma    90

_space_group_name_H-M_alt    "P 1"
_space_group_IT_number       1

loop_
  _space_group_symop_operation_xyz
  'x, y, z'

loop_
  _atom_site_type_symbol
  _atom_site_label
  _atom_site_symmetry_multiplicity
  _atom_site_fract_x
  _atom_site_fract_y
  _atom_site_fract_z
  _atom_site_occupancy
  In  In1       1.0  0.00000  0.00000  0.88713  1.0000
  In  In2       1.0  0.98072  0.98066  0.03361  1.0000
  In  In3       1.0  0.00000  0.50000  0.88713  1.0000
  In  In4       1.0  0.98072  0.51933  0.03360  1.0000
  In  In5       1.0  0.50000  0.00000  0.88713  1.0000
  In  In6       1.0  0.51930  0.98066  0.03361  1.0000
  In  In7       1.0  0.50000  0.50000  0.88713  1.0000
  In  In8       1.0  0.51929  0.51932  0.03361  1.0000
  Sb  Sb1       1.0  0.25000  0.25000  0.96165  1.0000
  Sb  Sb2       1.0  0.25001  0.24999  0.07410  1.0000
  Sb  Sb3       1.0  0.25000  0.75000  0.96165  1.0000
  Sb  Sb4       1.0  0.25001  0.74999  0.08244  1.0000
  Sb  Sb5       1.0  0.75000  0.25000  0.96165  1.0000
  Sb  Sb6       1.0  0.75001  0.25000  0.08245  1.0000
  Sb  Sb7       1.0  0.75000  0.75000  0.96165  1.0000
  Sb  Sb8       1.0  0.75001  0.74999  0.10929  1.0000
  C   C1        1.0  0.24981  0.25023  0.21488  1.0000
  O   O1        1.0  0.25004  0.24992  0.25890  1.0000
