# generated using pymatgen
data_In8Sb8CO
_symmetry_space_group_name_H-M   'P 1'
_cell_length_a   7.67805000
_cell_length_b   7.67805000
_cell_length_c   25.75850000
_cell_angle_alpha   90.00000000
_cell_angle_beta   90.00000000
_cell_angle_gamma   90.00000000
_symmetry_Int_Tables_number   1
_chemical_formula_structural   In8Sb8CO
_chemical_formula_sum   'In8 Sb8 C1 O1'
_cell_volume   1518.52672975
_cell_formula_units_Z   1
loop_
 _symmetry_equiv_pos_site_id
 _symmetry_equiv_pos_as_xyz
  1  'x, y, z'
loop_
 _atom_site_type_symbol
 _atom_site_label
 _atom_site_symmetry_multiplicity
 _atom_site_fract_x
 _atom_site_fract_y
 _atom_site_fract_z
 _atom_site_occupancy
  In  In0  1  0.00000000  0.50004000  0.11287000  1
  In  In1  1  0.98072000  0.51938000  0.96639000  1
  In  In2  1  0.00002000  0.00002000  0.11287000  1
  In  In3  1  0.98071500  0.98071500  0.96640000  1
  In  In4  1  0.50002000  0.50002000  0.11287000  1
  In  In5  1  0.51934000  0.51934000  0.96639000  1
  In  In6  1  0.50004000  1.00000000  0.11287000  1
  In  In7  1  0.51938000  0.98072000  0.96639000  1
  Sb  Sb8  1  0.25002000  0.25002000  0.03835000  1
  Sb  Sb9  1  0.25003000  0.25003000  0.92590000  1
  Sb  Sb10  1  0.25000000  0.75004000  0.03835000  1
  Sb  Sb11  1  0.25001000  0.75005000  0.91756000  1
  Sb  Sb12  1  0.75004000  0.25000000  0.03835000  1
  Sb  Sb13  1  0.75005000  0.25001000  0.91756000  1
  Sb  Sb14  1  0.75002000  0.75002000  0.03835000  1
  Sb  Sb15  1  0.75003000  0.75003000  0.89071000  1
  C  C16  1  0.24981000  0.24981000  0.78512000  1
  O  O17  1  0.25008000  0.25008000  0.74110000  1
