# generated using pymatgen
data_In8Sb8CO
_symmetry_space_group_name_H-M   Cm
_cell_length_a   10.85840244
_cell_length_b   10.85840244
_cell_length_c   25.75850000
_cell_angle_alpha   90.00000000
_cell_angle_beta   90.00000000
_cell_angle_gamma   90.00000000
_symmetry_Int_Tables_number   8
_chemical_formula_structural   In8Sb8CO
_chemical_formula_sum   'In16 Sb16 C2 O2'
_cell_volume   3037.05345951
_cell_formula_units_Z   2
loop_
 _symmetry_equiv_pos_site_id
 _symmetry_equiv_pos_as_xyz
  1  'x, y, z'
  2  'x, -y, z'
  3  'x+1/2, y+1/2, z'
  4  'x+1/2, -y+1/2, z'
loop_
 _atom_site_type_symbol
 _atom_site_label
 _atom_site_symmetry_multiplicity
 _atom_site_fract_x
 _atom_site_fract_y
 _atom_site_fract_z
 _atom_site_occupancy
  In  In0  4  0.25002000  0.25002000  0.88713000  1.0
  In  In1  4  0.25005000  0.26933000  0.03361000  1.0
  In  In2  2  0.00002000  0.00000000  0.88713000  1.0
  In  In3  2  0.00002000  0.50000000  0.88713000  1.0
  In  In4  2  0.01934000  0.50000000  0.03361000  1.0
  In  In5  2  0.48071500  0.50000000  0.03360000  1.0
  Sb  Sb6  4  0.00002000  0.24998000  0.96165000  1.0
  Sb  Sb7  4  0.00003000  0.24998000  0.08244000  1.0
  Sb  Sb8  2  0.25002000  0.00000000  0.96165000  1.0
  Sb  Sb9  2  0.25002000  0.50000000  0.96165000  1.0
  Sb  Sb10  2  0.25003000  0.00000000  0.07410000  1.0
  Sb  Sb11  2  0.25003000  0.50000000  0.10929000  1.0
  C  C12  2  0.24981000  0.00000000  0.21488000  1.0
  O  O13  2  0.25008000  0.00000000  0.25890000  1.0
