# generated using pymatgen
data_Li4Al4Ni4Pd4CO
_symmetry_space_group_name_H-M   'P 1'
_cell_length_a   5.91240000
_cell_length_b   5.91240000
_cell_length_c   24.43430000
_cell_angle_alpha   90.00000000
_cell_angle_beta   90.00000000
_cell_angle_gamma   90.00000000
_symmetry_Int_Tables_number   1
_chemical_formula_structural   Li4Al4Ni4Pd4CO
_chemical_formula_sum   'Li4 Al4 Ni4 Pd4 C1 O1'
_cell_volume   854.13696679
_cell_formula_units_Z   1
loop_
 _symmetry_equiv_pos_site_id
 _symmetry_equiv_pos_as_xyz
  1  'x, y, z'
loop_
 _atom_site_type_symbol
 _atom_site_label
 _atom_site_symmetry_multiplicity
 _atom_site_fract_x
 _atom_site_fract_y
 _atom_site_fract_z
 _atom_site_occupancy
  Li  Li0  1  0.00000000  0.50000000  0.90926000  1.0
  Li  Li1  1  0.00392000  0.99607000  0.03325000  1.0
  Li  Li2  1  0.49606000  0.50393000  0.03325000  1.0
  Li  Li3  1  0.50000000  0.00000000  0.90926000  1.0
  Al  Al4  1  0.00000000  0.00000000  0.90926000  1.0
  Al  Al5  1  0.00377000  0.50377000  0.03262000  1.0
  Al  Al6  1  0.49622000  0.99624000  0.03262000  1.0
  Al  Al7  1  0.50000000  0.50000000  0.90926000  1.0
  Ni  Ni8  1  0.25000000  0.25000000  0.96975000  1.0
  Ni  Ni9  1  0.24988000  0.74986000  0.08875000  1.0
  Ni  Ni10  1  0.75023000  0.25016000  0.08732000  1.0
  Ni  Ni11  1  0.75000000  0.75000000  0.96975000  1.0
  Pd  Pd12  1  0.75000000  0.25000000  0.96975000  1.0
  Pd  Pd13  1  0.74988000  0.74988000  0.09092000  1.0
  Pd  Pd14  1  0.25012000  0.25006000  0.09091000  1.0
  Pd  Pd15  1  0.25000000  0.75000000  0.96975000  1.0
  C  C16  1  0.75000000  0.25001000  0.15970000  1.0
  O  O17  1  0.75000000  0.25000000  0.20695000  1.0
