# generated using pymatgen
data_Sc8Cu8Ge8Pd8CO
_symmetry_space_group_name_H-M   'P 1'
_cell_length_a   8.95756000
_cell_length_b   6.33395000
_cell_length_c   26.71820000
_cell_angle_alpha   90.00000000
_cell_angle_beta   90.00000000
_cell_angle_gamma   90.00000000
_symmetry_Int_Tables_number   1
_chemical_formula_structural   Sc8Cu8Ge8Pd8CO
_chemical_formula_sum   'Sc8 Cu8 Ge8 Pd8 C1 O1'
_cell_volume   1515.90349084
_cell_formula_units_Z   1
loop_
 _symmetry_equiv_pos_site_id
 _symmetry_equiv_pos_as_xyz
  1  'x, y, z'
loop_
 _atom_site_type_symbol
 _atom_site_label
 _atom_site_symmetry_multiplicity
 _atom_site_fract_x
 _atom_site_fract_y
 _atom_site_fract_z
 _atom_site_occupancy
  Sc  Sc0  1  0.75001000  0.75000000  0.04191000  1.0
  Sc  Sc1  1  0.24999000  0.75000000  0.04191000  1.0
  Sc  Sc2  1  0.00000000  0.25000000  0.12572000  1.0
  Sc  Sc3  1  0.50000000  0.25000000  0.12572000  1.0
  Sc  Sc4  1  0.27009000  0.69879000  0.86929000  1.0
  Sc  Sc5  1  0.72991000  0.69879000  0.86929000  1.0
  Sc  Sc6  1  0.50000000  0.25201000  0.95583000  1.0
  Sc  Sc7  1  0.00000000  0.23032000  0.95601000  1.0
  Cu  Cu8  1  0.75001000  0.00000000  0.12572000  1.0
  Cu  Cu9  1  0.24999000  0.00000000  0.12572000  1.0
  Cu  Cu10  1  0.50000000  0.50000000  0.04191000  1.0
  Cu  Cu11  1  0.00000000  0.50000000  0.04191000  1.0
  Cu  Cu12  1  0.25258000  0.97613000  0.94924000  1.0
  Cu  Cu13  1  0.74742000  0.97613000  0.94924000  1.0
  Cu  Cu14  1  0.00000000  0.48035000  0.87465000  1.0
  Cu  Cu15  1  0.50000000  0.39326000  0.85298000  1.0
  Ge  Ge16  1  0.75001000  0.25000000  0.04191000  1.0
  Ge  Ge17  1  0.24999000  0.25000000  0.04191000  1.0
  Ge  Ge18  1  0.00000000  0.75000000  0.12572000  1.0
  Ge  Ge19  1  0.50000000  0.75000000  0.12572000  1.0
  Ge  Ge20  1  0.24394000  0.24167000  0.87578000  1.0
  Ge  Ge21  1  0.75606000  0.24167000  0.87578000  1.0
  Ge  Ge22  1  0.50000000  0.74387000  0.95933000  1.0
  Ge  Ge23  1  0.00000000  0.75254000  0.95419000  1.0
  Pd  Pd24  1  0.00000000  0.00000000  0.04191000  1.0
  Pd  Pd25  1  0.50000000  1.00000000  0.04191000  1.0
  Pd  Pd26  1  0.25001000  0.50000000  0.12572000  1.0
  Pd  Pd27  1  0.74999000  0.50000000  0.12572000  1.0
  Pd  Pd28  1  0.50000000  0.97560000  0.87671000  1.0
  Pd  Pd29  1  0.00000000  0.93192000  0.86298000  1.0
  Pd  Pd30  1  0.75575000  0.50103000  0.95986000  1.0
  Pd  Pd31  1  0.24425000  0.50103000  0.95986000  1.0
  C  C32  1  0.00000000  0.95877000  0.79010000  1.0
  O  O33  1  0.00000000  0.98215000  0.74734000  1.0
