data_image0
_chemical_formula_structural       NbZn3NbZn3NbZn3NbZn3NbZn3NbZn3NbZn3NbZn3CO
_chemical_formula_sum              "Nb8 Zn24 C1 O1"
_cell_length_a       7.89001
_cell_length_b       7.89001
_cell_length_c       25.9175
_cell_angle_alpha    90
_cell_angle_beta     90
_cell_angle_gamma    90

_space_group_name_H-M_alt    "P 1"
_space_group_IT_number       1

loop_
  _space_group_symop_operation_xyz
  'x, y, z'

loop_
  _atom_site_type_symbol
  _atom_site_label
  _atom_site_symmetry_multiplicity
  _atom_site_fract_x
  _atom_site_fract_y
  _atom_site_fract_z
  _atom_site_occupancy
  Nb  Nb1       1.0  0.00000  0.00000  0.11416  1.0000
  Zn  Zn1       1.0  0.00000  0.25000  0.03805  1.0000
  Zn  Zn2       1.0  0.25000  0.00000  0.03805  1.0000
  Zn  Zn3       1.0  0.25000  0.25000  0.11416  1.0000
  Nb  Nb2       1.0  0.00000  0.00000  0.96195  1.0000
  Zn  Zn4       1.0  0.00000  0.25000  0.88584  1.0000
  Zn  Zn5       1.0  0.25000  0.00000  0.88584  1.0000
  Zn  Zn6       1.0  0.25000  0.25000  0.96195  1.0000
  Nb  Nb3       1.0  0.00000  0.50000  0.11416  1.0000
  Zn  Zn7       1.0  0.00000  0.75000  0.03805  1.0000
  Zn  Zn8       1.0  0.25000  0.50000  0.03805  1.0000
  Zn  Zn9       1.0  0.25000  0.75000  0.11416  1.0000
  Nb  Nb4       1.0  0.00000  0.50000  0.96195  1.0000
  Zn  Zn10      1.0  0.00000  0.75000  0.88584  1.0000
  Zn  Zn11      1.0  0.25000  0.50000  0.88584  1.0000
  Zn  Zn12      1.0  0.25000  0.75000  0.96195  1.0000
  Nb  Nb5       1.0  0.50000  0.00000  0.11416  1.0000
  Zn  Zn13      1.0  0.50000  0.25000  0.03805  1.0000
  Zn  Zn14      1.0  0.75000  0.00000  0.03805  1.0000
  Zn  Zn15      1.0  0.75000  0.25000  0.11416  1.0000
  Nb  Nb6       1.0  0.50000  0.00000  0.96195  1.0000
  Zn  Zn16      1.0  0.50000  0.25000  0.88584  1.0000
  Zn  Zn17      1.0  0.75000  0.00000  0.88584  1.0000
  Zn  Zn18      1.0  0.75000  0.25000  0.96195  1.0000
  Nb  Nb7       1.0  0.50000  0.50000  0.11416  1.0000
  Zn  Zn19      1.0  0.50000  0.75000  0.03805  1.0000
  Zn  Zn20      1.0  0.75000  0.50000  0.03805  1.0000
  Zn  Zn21      1.0  0.75000  0.75000  0.11416  1.0000
  Nb  Nb8       1.0  0.50000  0.50000  0.96195  1.0000
  Zn  Zn22      1.0  0.50000  0.75000  0.88584  1.0000
  Zn  Zn23      1.0  0.75000  0.50000  0.88584  1.0000
  Zn  Zn24      1.0  0.75000  0.75000  0.96195  1.0000
  C   C1        1.0  0.25000  0.25000  0.18747  1.0000
  O   O1        1.0  0.25000  0.25000  0.23184  1.0000
