# generated using pymatgen
data_Li16Pb8Au8CO
_symmetry_space_group_name_H-M   'P 1'
_cell_length_a   9.64550000
_cell_length_b   6.82040000
_cell_length_c   27.23410000
_cell_angle_alpha   90.00000000
_cell_angle_beta   90.00000000
_cell_angle_gamma   90.00000000
_symmetry_Int_Tables_number   1
_chemical_formula_structural   Li16Pb8Au8CO
_chemical_formula_sum   'Li16 Pb8 Au8 C1 O1'
_cell_volume   1791.62708338
_cell_formula_units_Z   1
loop_
 _symmetry_equiv_pos_site_id
 _symmetry_equiv_pos_as_xyz
  1  'x, y, z'
loop_
 _atom_site_type_symbol
 _atom_site_label
 _atom_site_symmetry_multiplicity
 _atom_site_fract_x
 _atom_site_fract_y
 _atom_site_fract_z
 _atom_site_occupancy
  Li  Li0  1  0.50000000  1.00000000  0.04427000  1.0
  Li  Li1  1  0.75000000  0.50000000  0.13281000  1.0
  Li  Li2  1  0.00000000  0.00000000  0.04427000  1.0
  Li  Li3  1  0.25000000  0.50000000  0.13281000  1.0
  Li  Li4  1  0.75000000  0.25000000  0.04427000  1.0
  Li  Li5  1  0.25000000  0.25000000  0.04427000  1.0
  Li  Li6  1  0.50000000  0.75000000  0.13281000  1.0
  Li  Li7  1  0.00000000  0.75000000  0.13281000  1.0
  Li  Li8  1  0.00000000  0.98069000  0.87163000  1.0
  Li  Li9  1  0.24902000  0.49937000  0.96375000  1.0
  Li  Li10  1  0.50000000  0.97690000  0.87201000  1.0
  Li  Li11  1  0.75098000  0.49937000  0.96375000  1.0
  Li  Li12  1  0.25052000  0.29804000  0.87776000  1.0
  Li  Li13  1  0.74948000  0.29804000  0.87776000  1.0
  Li  Li14  1  0.00000000  0.71339000  0.94718000  1.0
  Li  Li15  1  0.50000000  0.70794000  0.94594000  1.0
  Pb  Pb16  1  0.75000000  0.00000000  0.13281000  1.0
  Pb  Pb17  1  0.00000000  0.50000000  0.04427000  1.0
  Pb  Pb18  1  0.50000000  0.50000000  0.04427000  1.0
  Pb  Pb19  1  0.25000000  0.00000000  0.13281000  1.0
  Pb  Pb20  1  0.24717000  0.00981000  0.95722000  1.0
  Pb  Pb21  1  0.50000000  0.49712000  0.84436000  1.0
  Pb  Pb22  1  0.00000000  0.50894000  0.84723000  1.0
  Pb  Pb23  1  0.75283000  0.00981000  0.95722000  1.0
  Au  Au24  1  0.00000000  0.25000000  0.13281000  1.0
  Au  Au25  1  0.50000000  0.25000000  0.13281000  1.0
  Au  Au26  1  0.25000000  0.75000000  0.04427000  1.0
  Au  Au27  1  0.75000000  0.75000000  0.04427000  1.0
  Au  Au28  1  0.50000000  0.28094000  0.94233000  1.0
  Au  Au29  1  0.00000000  0.28515000  0.94209000  1.0
  Au  Au30  1  0.74391000  0.71199000  0.88105000  1.0
  Au  Au31  1  0.25609000  0.71199000  0.88105000  1.0
  C  C32  1  0.00000000  0.00580000  0.79517000  1.0
  O  O33  1  0.00000000  0.00597000  0.75317000  1.0
