data_image0
_chemical_formula_structural       Li8Mg8Ge8Pd8C
_chemical_formula_sum              "Li8 Mg8 Ge8 Pd8 C1"
_cell_length_a       6.25843
_cell_length_b       8.85076
_cell_length_c       26.6381
_cell_angle_alpha    90
_cell_angle_beta     90
_cell_angle_gamma    90

_space_group_name_H-M_alt    "P 1"
_space_group_IT_number       1

loop_
  _space_group_symop_operation_xyz
  'x, y, z'

loop_
  _atom_site_type_symbol
  _atom_site_label
  _atom_site_symmetry_multiplicity
  _atom_site_fract_x
  _atom_site_fract_y
  _atom_site_fract_z
  _atom_site_occupancy
  Li  Li1       1.0  0.25000  0.00000  0.95847  1.0000
  Li  Li2       1.0  0.25000  0.50000  0.95847  1.0000
  Li  Li3       1.0  0.75000  0.25000  0.87540  1.0000
  Li  Li4       1.0  0.75000  0.75000  0.87540  1.0000
  Li  Li5       1.0  0.28935  0.52750  0.14229  1.0000
  Li  Li6       1.0  0.28935  0.97250  0.14229  1.0000
  Li  Li7       1.0  0.76286  0.75000  0.04124  1.0000
  Li  Li8       1.0  0.73231  0.25000  0.05420  1.0000
  Mg  Mg1       1.0  0.00000  0.25000  0.95847  1.0000
  Mg  Mg2       1.0  0.00000  0.75000  0.95847  1.0000
  Mg  Mg3       1.0  0.50000  0.50000  0.87540  1.0000
  Mg  Mg4       1.0  0.50000  0.00000  0.87540  1.0000
  Mg  Mg5       1.0  0.96542  0.75001  0.13017  1.0000
  Mg  Mg6       1.0  0.05870  0.25000  0.12541  1.0000
  Mg  Mg7       1.0  0.48753  0.98757  0.04271  1.0000
  Mg  Mg8       1.0  0.48753  0.51243  0.04271  1.0000
  Ge  Ge1       1.0  0.00000  0.00000  0.87540  1.0000
  Ge  Ge2       1.0  0.00000  0.50000  0.87540  1.0000
  Ge  Ge3       1.0  0.50000  0.75000  0.95847  1.0000
  Ge  Ge4       1.0  0.50000  0.25000  0.95847  1.0000
  Ge  Ge5       1.0  0.00597  0.49396  0.04780  1.0000
  Ge  Ge6       1.0  0.00597  0.00604  0.04780  1.0000
  Ge  Ge7       1.0  0.45626  0.25000  0.16269  1.0000
  Ge  Ge8       1.0  0.52795  0.75000  0.12757  1.0000
  Pd  Pd1       1.0  0.75000  0.00000  0.95847  1.0000
  Pd  Pd2       1.0  0.75000  0.50000  0.95847  1.0000
  Pd  Pd3       1.0  0.25000  0.25000  0.87540  1.0000
  Pd  Pd4       1.0  0.25000  0.75000  0.87540  1.0000
  Pd  Pd5       1.0  0.73132  0.48580  0.12406  1.0000
  Pd  Pd6       1.0  0.73132  0.01421  0.12406  1.0000
  Pd  Pd7       1.0  0.22130  0.75000  0.04665  1.0000
  Pd  Pd8       1.0  0.25188  0.25000  0.03616  1.0000
  C   C1        1.0  0.73589  0.25001  0.14127  1.0000
