# generated using pymatgen
data_Li8Mg8Ge8Pd8C
_symmetry_space_group_name_H-M   Pm
_cell_length_a   6.25843000
_cell_length_b   8.85076000
_cell_length_c   26.63810000
_cell_angle_alpha   90.00000000
_cell_angle_beta   90.00000000
_cell_angle_gamma   90.00000000
_symmetry_Int_Tables_number   6
_chemical_formula_structural   Li8Mg8Ge8Pd8C
_chemical_formula_sum   'Li8 Mg8 Ge8 Pd8 C1'
_cell_volume   1475.53395666
_cell_formula_units_Z   1
loop_
 _symmetry_equiv_pos_site_id
 _symmetry_equiv_pos_as_xyz
  1  'x, y, z'
  2  'x, -y, z'
loop_
 _atom_site_type_symbol
 _atom_site_label
 _atom_site_symmetry_multiplicity
 _atom_site_fract_x
 _atom_site_fract_y
 _atom_site_fract_z
 _atom_site_occupancy
  Li  Li0  2  0.25000000  0.25001000  0.95847000  1.0
  Li  Li1  2  0.28935000  0.27749000  0.14229000  1.0
  Li  Li2  1  0.73231000  0.00000000  0.05420000  1.0
  Li  Li3  1  0.75000000  0.00000000  0.87540000  1.0
  Li  Li4  1  0.75000000  0.50000000  0.87540000  1.0
  Li  Li5  1  0.76286000  0.50000000  0.04124000  1.0
  Mg  Mg6  2  0.48753000  0.26244000  0.04271000  1.0
  Mg  Mg7  2  0.50000000  0.24999000  0.87540000  1.0
  Mg  Mg8  1  -0.00000000  0.50000000  0.95847000  1.0
  Mg  Mg9  1  -0.00000000  0.00000000  0.95847000  1.0
  Mg  Mg10  1  0.05870000  0.00000000  0.12541000  1.0
  Mg  Mg11  1  0.96542000  0.50000000  0.13017000  1.0
  Ge  Ge12  2  0.00000000  0.25001000  0.87540000  1.0
  Ge  Ge13  2  0.00597000  0.24395000  0.04780000  1.0
  Ge  Ge14  1  0.45626000  0.00000000  0.16269000  1.0
  Ge  Ge15  1  0.50000000  0.00000000  0.95847000  1.0
  Ge  Ge16  1  0.50000000  0.50000000  0.95847000  1.0
  Ge  Ge17  1  0.52795000  0.50000000  0.12757000  1.0
  Pd  Pd18  2  0.73132000  0.23579000  0.12406000  1.0
  Pd  Pd19  2  0.75000000  0.25001000  0.95847000  1.0
  Pd  Pd20  1  0.22130000  0.50000000  0.04665000  1.0
  Pd  Pd21  1  0.25000000  0.00000000  0.87540000  1.0
  Pd  Pd22  1  0.25000000  0.50000000  0.87540000  1.0
  Pd  Pd23  1  0.25188000  0.00000000  0.03616000  1.0
  C  C24  1  0.73589000  0.00000000  0.14127000  1.0
