# generated using pymatgen
data_Y4Al4In4Pd4CO
_symmetry_space_group_name_H-M   P1
_cell_length_a   6.15545000
_cell_length_b   8.86460000
_cell_length_c   24.58270000
_cell_angle_alpha   90.00000000
_cell_angle_beta   90.00000000
_cell_angle_gamma   90.00000000
_symmetry_Int_Tables_number   1
_chemical_formula_structural   Y4Al4In4Pd4CO
_chemical_formula_sum   'Y4 Al4 In4 Pd4 C1 O1'
_cell_volume   1341.36982601
_cell_formula_units_Z   1
loop_
 _symmetry_equiv_pos_site_id
 _symmetry_equiv_pos_as_xyz
  1  'x, y, z'
loop_
 _atom_site_type_symbol
 _atom_site_label
 _atom_site_symmetry_multiplicity
 _atom_site_fract_x
 _atom_site_fract_y
 _atom_site_fract_z
 _atom_site_occupancy
  Y  Y0  1  0.50000000  0.00000000  0.90679000  1.0
  Y  Y1  1  0.50000000  0.50000000  0.90679000  1.0
  Y  Y2  1  0.91559000  0.99928000  0.03344000  1.0
  Y  Y3  1  0.91560000  0.50075000  0.03344000  1.0
  Al  Al4  1  0.00000000  0.00000000  0.90679000  1.0
  Al  Al5  1  0.00000000  0.50000000  0.90679000  1.0
  Al  Al6  1  0.41636000  0.50012000  0.03916000  1.0
  Al  Al7  1  0.41636000  0.99989000  0.03916000  1.0
  In  In8  1  0.21976000  0.25000000  0.96893000  1.0
  In  In9  1  0.21976000  0.75000000  0.96893000  1.0
  In  In10  1  0.63093000  0.75001000  0.09847000  1.0
  In  In11  1  0.63157000  0.25001000  0.09694000  1.0
  Pd  Pd12  1  0.17711000  0.25001000  0.08078000  1.0
  Pd  Pd13  1  0.17888000  0.75003000  0.08095000  1.0
  Pd  Pd14  1  0.71976000  0.25000000  0.96893000  1.0
  Pd  Pd15  1  0.71976000  0.75000000  0.96893000  1.0
  C  C16  1  0.59104000  0.24970000  0.24455000  1.0
  O  O17  1  0.71835000  0.25004000  0.27798000  1.0
