# generated using pymatgen
data_Ga16Ru16CO
_symmetry_space_group_name_H-M   'P 1'
_cell_length_a   6.07363000
_cell_length_b   8.58941000
_cell_length_c   26.44210000
_cell_angle_alpha   90.00000000
_cell_angle_beta   90.00000000
_cell_angle_gamma   90.00000000
_symmetry_Int_Tables_number   1
_chemical_formula_structural   Ga16Ru16CO
_chemical_formula_sum   'Ga16 Ru16 C1 O1'
_cell_volume   1379.45522464
_cell_formula_units_Z   1
loop_
 _symmetry_equiv_pos_site_id
 _symmetry_equiv_pos_as_xyz
  1  'x, y, z'
loop_
 _atom_site_type_symbol
 _atom_site_label
 _atom_site_symmetry_multiplicity
 _atom_site_fract_x
 _atom_site_fract_y
 _atom_site_fract_z
 _atom_site_occupancy
  Ga  Ga0  1  0.00000000  0.00000000  0.87819000  1.0
  Ga  Ga1  1  0.00000000  0.25000000  0.95940000  1.0
  Ga  Ga2  1  0.00000000  0.00008000  0.03973000  1.0
  Ga  Ga3  1  0.00000000  0.25009000  0.12498000  1.0
  Ga  Ga4  1  0.00000000  0.50000000  0.87819000  1.0
  Ga  Ga5  1  0.00000000  0.75000000  0.95940000  1.0
  Ga  Ga6  1  0.00000000  0.49994000  0.03974000  1.0
  Ga  Ga7  1  0.00000000  0.75001000  0.12478000  1.0
  Ga  Ga8  1  0.50000000  0.00000000  0.87819000  1.0
  Ga  Ga9  1  0.50000000  0.25000000  0.95940000  1.0
  Ga  Ga10  1  0.50000000  0.00001000  0.03976000  1.0
  Ga  Ga11  1  0.49999000  0.25006000  0.12544000  1.0
  Ga  Ga12  1  0.50000000  0.50000000  0.87819000  1.0
  Ga  Ga13  1  0.50000000  0.75000000  0.95940000  1.0
  Ga  Ga14  1  0.50000000  0.50001000  0.03977000  1.0
  Ga  Ga15  1  0.49999000  0.75005000  0.12497000  1.0
  Ru  Ru16  1  0.25000000  0.25000000  0.87819000  1.0
  Ru  Ru17  1  0.25000000  0.00000000  0.95940000  1.0
  Ru  Ru18  1  0.25004000  0.25001000  0.03937000  1.0
  Ru  Ru19  1  0.25019000  0.00022000  0.11856000  1.0
  Ru  Ru20  1  0.25000000  0.75000000  0.87819000  1.0
  Ru  Ru21  1  0.25000000  0.50000000  0.95940000  1.0
  Ru  Ru22  1  0.25002000  0.75002000  0.03929000  1.0
  Ru  Ru23  1  0.25021000  0.49989000  0.11858000  1.0
  Ru  Ru24  1  0.75000000  0.25000000  0.87819000  1.0
  Ru  Ru25  1  0.75000000  0.00000000  0.95940000  1.0
  Ru  Ru26  1  0.74996000  0.25001000  0.03937000  1.0
  Ru  Ru27  1  0.74981000  0.00022000  0.11856000  1.0
  Ru  Ru28  1  0.75000000  0.75000000  0.87819000  1.0
  Ru  Ru29  1  0.75000000  0.50000000  0.95940000  1.0
  Ru  Ru30  1  0.74998000  0.75002000  0.03929000  1.0
  Ru  Ru31  1  0.74979000  0.49989000  0.11858000  1.0
  C  C32  1  0.00005000  0.24871000  0.27204000  1.0
  O  O33  1  0.99995000  0.25005000  0.31495000  1.0
