# generated using pymatgen
data_Mn8Pd8CO
_symmetry_space_group_name_H-M   'P 1'
_cell_length_a   6.08584000
_cell_length_b   6.08584000
_cell_length_c   25.13060000
_cell_angle_alpha   90.00000000
_cell_angle_beta   90.00000000
_cell_angle_gamma   90.00000000
_symmetry_Int_Tables_number   1
_chemical_formula_structural   Mn8Pd8CO
_chemical_formula_sum   'Mn8 Pd8 C1 O1'
_cell_volume   930.77330341
_cell_formula_units_Z   1
loop_
 _symmetry_equiv_pos_site_id
 _symmetry_equiv_pos_as_xyz
  1  'x, y, z'
loop_
 _atom_site_type_symbol
 _atom_site_label
 _atom_site_symmetry_multiplicity
 _atom_site_fract_x
 _atom_site_fract_y
 _atom_site_fract_z
 _atom_site_occupancy
  Mn  Mn0  1  0.75000000  0.75000000  0.88706000  1.0
  Mn  Mn1  1  0.75000000  0.75000000  0.02317000  1.0
  Mn  Mn2  1  0.75000000  0.25000000  0.88706000  1.0
  Mn  Mn3  1  0.75000000  0.25000000  0.02317000  1.0
  Mn  Mn4  1  0.25000000  0.75000000  0.88706000  1.0
  Mn  Mn5  1  0.25000000  0.75000000  0.02317000  1.0
  Mn  Mn6  1  0.25000000  0.25000000  0.88706000  1.0
  Mn  Mn7  1  0.25000000  0.25000000  0.02317000  1.0
  Pd  Pd8  1  0.00000000  0.00000000  0.95512000  1.0
  Pd  Pd9  1  0.00000000  0.00000000  0.09122000  1.0
  Pd  Pd10  1  0.00000000  0.50000000  0.95512000  1.0
  Pd  Pd11  1  0.00000000  0.50000000  0.09122000  1.0
  Pd  Pd12  1  0.50000000  0.00000000  0.95512000  1.0
  Pd  Pd13  1  0.50000000  0.00000000  0.09122000  1.0
  Pd  Pd14  1  0.50000000  0.50000000  0.95512000  1.0
  Pd  Pd15  1  0.50000000  0.50000000  0.09122000  1.0
  C  C16  1  0.00000000  0.00000000  0.16683000  1.0
  O  O17  1  0.00000000  0.00000000  0.21259000  1.0
