# generated using pymatgen
data_Li4Sc4In4Ge4CO
_symmetry_space_group_name_H-M   'P 1'
_cell_length_a   6.05318000
_cell_length_b   8.22048000
_cell_length_c   24.51760000
_cell_angle_alpha   90.00000000
_cell_angle_beta   90.00000000
_cell_angle_gamma   90.00000000
_symmetry_Int_Tables_number   1
_chemical_formula_structural   Li4Sc4In4Ge4CO
_chemical_formula_sum   'Li4 Sc4 In4 Ge4 C1 O1'
_cell_volume   1219.99688239
_cell_formula_units_Z   1
loop_
 _symmetry_equiv_pos_site_id
 _symmetry_equiv_pos_as_xyz
  1  'x, y, z'
loop_
 _atom_site_type_symbol
 _atom_site_label
 _atom_site_symmetry_multiplicity
 _atom_site_fract_x
 _atom_site_fract_y
 _atom_site_fract_z
 _atom_site_occupancy
  Li  Li0  1  0.50000000  0.00000000  0.90787000  1.0
  Li  Li1  1  0.92544000  0.99965000  0.03008000  1.0
  Li  Li2  1  0.50000000  0.50000000  0.90787000  1.0
  Li  Li3  1  0.92542000  0.50037000  0.03009000  1.0
  Sc  Sc4  1  0.22528000  0.25000000  0.96929000  1.0
  Sc  Sc5  1  0.58826000  0.25003000  0.09409000  1.0
  Sc  Sc6  1  0.22528000  0.75000000  0.96929000  1.0
  Sc  Sc7  1  0.58831000  0.75004000  0.09266000  1.0
  In  In8  1  0.72528000  0.25000000  0.96929000  1.0
  In  In9  1  0.09533000  0.24998000  0.10739000  1.0
  In  In10  1  0.72528000  0.75000000  0.96929000  1.0
  In  In11  1  0.09544000  0.75003000  0.10817000  1.0
  Ge  Ge12  1  0.00000000  0.00000000  0.90787000  1.0
  Ge  Ge13  1  0.38479000  0.99876000  0.04130000  1.0
  Ge  Ge14  1  0.00000000  0.50000000  0.90787000  1.0
  Ge  Ge15  1  0.38480000  0.50130000  0.04130000  1.0
  C  C16  1  0.49975000  0.24994000  0.18496000  1.0
  O  O17  1  0.45592000  0.24990000  0.23082000  1.0
