data_image0
_chemical_formula_structural       Li24Sb8
_chemical_formula_sum              "Li24 Sb8"
_cell_length_a       6.56971
_cell_length_b       9.29097
_cell_length_c       26.9682
_cell_angle_alpha    90
_cell_angle_beta     90
_cell_angle_gamma    90

_space_group_name_H-M_alt    "P 1"
_space_group_IT_number       1

loop_
  _space_group_symop_operation_xyz
  'x, y, z'

loop_
  _atom_site_type_symbol
  _atom_site_label
  _atom_site_symmetry_multiplicity
  _atom_site_fract_x
  _atom_site_fract_y
  _atom_site_fract_z
  _atom_site_occupancy
  Li  Li1       1.0  0.25000  0.00000  0.95694  1.0000
  Li  Li2       1.0  0.75000  0.50000  0.95694  1.0000
  Li  Li3       1.0  0.75000  0.00000  0.95694  1.0000
  Li  Li4       1.0  0.25000  0.50000  0.95694  1.0000
  Li  Li5       1.0  0.75000  0.75000  0.87081  1.0000
  Li  Li6       1.0  0.25000  0.25000  0.87081  1.0000
  Li  Li7       1.0  0.25000  0.75000  0.87081  1.0000
  Li  Li8       1.0  0.75000  0.25000  0.87081  1.0000
  Li  Li9       1.0  0.00000  0.75000  0.95694  1.0000
  Li  Li10      1.0  0.50000  0.00000  0.87081  1.0000
  Li  Li11      1.0  0.00000  0.25000  0.95694  1.0000
  Li  Li12      1.0  0.50000  0.50000  0.87081  1.0000
  Li  Li13      1.0  0.28301  0.50000  0.13051  1.0000
  Li  Li14      1.0  0.71700  0.00000  0.13051  1.0000
  Li  Li15      1.0  0.71699  0.50000  0.13051  1.0000
  Li  Li16      1.0  0.28300  0.00000  0.13051  1.0000
  Li  Li17      1.0  0.74364  0.25000  0.04190  1.0000
  Li  Li18      1.0  0.25636  0.75000  0.04190  1.0000
  Li  Li19      1.0  0.25636  0.25000  0.04190  1.0000
  Li  Li20      1.0  0.74364  0.75000  0.04190  1.0000
  Li  Li21      1.0  0.00000  0.24999  0.11929  1.0000
  Li  Li22      1.0  0.49999  0.50000  0.04445  1.0000
  Li  Li23      1.0  1.00000  0.75001  0.11929  1.0000
  Li  Li24      1.0  0.50000  0.00000  0.04445  1.0000
  Sb  Sb1       1.0  0.00000  0.00000  0.87081  1.0000
  Sb  Sb2       1.0  0.50000  0.25000  0.95694  1.0000
  Sb  Sb3       1.0  0.50000  0.75000  0.95694  1.0000
  Sb  Sb4       1.0  0.00000  0.50000  0.87081  1.0000
  Sb  Sb5       1.0  0.00001  0.50000  0.04794  1.0000
  Sb  Sb6       1.0  0.50000  0.75000  0.12767  1.0000
  Sb  Sb7       1.0  0.50000  0.25000  0.12766  1.0000
  Sb  Sb8       1.0  0.00000  0.00000  0.04794  1.0000
