# generated using pymatgen
data_Li3Sb
_symmetry_space_group_name_H-M   Pmm2
_cell_length_a   4.64548500
_cell_length_b   6.56971000
_cell_length_c   26.96820000
_cell_angle_alpha   90.00000000
_cell_angle_beta   90.00000000
_cell_angle_gamma   90.00000000
_symmetry_Int_Tables_number   25
_chemical_formula_structural   Li3Sb
_chemical_formula_sum   'Li12 Sb4'
_cell_volume   823.05569024
_cell_formula_units_Z   4
loop_
 _symmetry_equiv_pos_site_id
 _symmetry_equiv_pos_as_xyz
  1  'x, y, z'
  2  '-x, -y, z'
  3  '-x, y, z'
  4  'x, -y, z'
loop_
 _atom_site_type_symbol
 _atom_site_label
 _atom_site_symmetry_multiplicity
 _atom_site_fract_x
 _atom_site_fract_y
 _atom_site_fract_z
 _atom_site_occupancy
  Li  Li0  2  0.00000000  0.25000000  0.04306000  1.0
  Li  Li1  2  0.00000000  0.28300500  0.86949000  1.0
  Li  Li2  2  0.50000000  0.25000000  0.12919000  1.0
  Li  Li3  2  0.50000000  0.25636000  0.95810000  1.0
  Li  Li4  1  0.00000000  0.50000000  0.12919000  1.0
  Li  Li5  1  0.00000000  0.50000000  0.95555000  1.0
  Li  Li6  1  0.50000000  0.00000000  0.04306000  1.0
  Li  Li7  1  0.50000000  0.00000000  0.88071000  1.0
  Sb  Sb8  1  0.00000000  0.00000000  0.12919000  1.0
  Sb  Sb9  1  0.00000000  0.00000000  0.95206000  1.0
  Sb  Sb10  1  0.50000000  0.50000000  0.04306000  1.0
  Sb  Sb11  1  0.50000000  0.50000000  0.87233500  1.0
