# generated using pymatgen
data_Cu3Sb
_symmetry_space_group_name_H-M   Pmm2
_cell_length_a   4.46151000
_cell_length_b   6.30953000
_cell_length_c   26.69230000
_cell_angle_alpha   90.00000000
_cell_angle_beta   90.00000000
_cell_angle_gamma   90.00000000
_symmetry_Int_Tables_number   25
_chemical_formula_structural   Cu3Sb
_chemical_formula_sum   'Cu12 Sb4'
_cell_volume   751.38907754
_cell_formula_units_Z   4
loop_
 _symmetry_equiv_pos_site_id
 _symmetry_equiv_pos_as_xyz
  1  'x, y, z'
  2  '-x, -y, z'
  3  '-x, y, z'
  4  'x, -y, z'
loop_
 _atom_site_type_symbol
 _atom_site_label
 _atom_site_symmetry_multiplicity
 _atom_site_fract_x
 _atom_site_fract_y
 _atom_site_fract_z
 _atom_site_occupancy
  Cu  Cu0  2  0.00000000  0.25000000  0.04179000  1.0
  Cu  Cu1  2  0.00000000  0.28971000  0.88575000  1.0
  Cu  Cu2  2  0.50000000  0.25000000  0.12536000  1.0
  Cu  Cu3  2  0.50000000  0.29332000  0.94866000  1.0
  Cu  Cu4  1  0.00000000  0.50000000  0.12536000  1.0
  Cu  Cu5  1  0.00000000  0.50000000  0.96784500  1.0
  Cu  Cu6  1  0.50000000  0.00000000  0.04179000  1.0
  Cu  Cu7  1  0.50000000  0.00000000  0.88528500  1.0
  Sb  Sb8  1  0.00000000  0.00000000  0.12536000  1.0
  Sb  Sb9  1  0.00000000  0.00000000  0.95690000  1.0
  Sb  Sb10  1  0.50000000  0.50000000  0.04179000  1.0
  Sb  Sb11  1  0.50000000  0.50000000  0.85518000  1.0
