# generated using pymatgen
data_Ti4Rh12CO
_symmetry_space_group_name_H-M   Pm
_cell_length_a   5.46745000
_cell_length_b   7.73214000
_cell_length_c   24.10060000
_cell_angle_alpha   90.00000000
_cell_angle_beta   90.00000000
_cell_angle_gamma   90.00000000
_symmetry_Int_Tables_number   6
_chemical_formula_structural   Ti4Rh12CO
_chemical_formula_sum   'Ti4 Rh12 C1 O1'
_cell_volume   1018.85500617
_cell_formula_units_Z   1
loop_
 _symmetry_equiv_pos_site_id
 _symmetry_equiv_pos_as_xyz
  1  'x, y, z'
  2  'x, -y, z'
loop_
 _atom_site_type_symbol
 _atom_site_label
 _atom_site_symmetry_multiplicity
 _atom_site_fract_x
 _atom_site_fract_y
 _atom_site_fract_z
 _atom_site_occupancy
  Ti  Ti0  2  0.00000000  0.25000000  0.08507000  1.0
  Ti  Ti1  2  0.49965000  0.24879000  0.97315000  1.0
  Rh  Rh2  2  0.00342000  0.24928000  0.97574000  1.0
  Rh  Rh3  2  0.50000000  0.25000000  0.08507000  1.0
  Rh  Rh4  1  0.25000000  0.00000000  0.02836000  1.0
  Rh  Rh5  1  0.25000000  0.50000000  0.02836000  1.0
  Rh  Rh6  1  0.26135000  0.00000000  0.91910000  1.0
  Rh  Rh7  1  0.26339000  0.50000000  0.91887000  1.0
  Rh  Rh8  1  0.74584000  0.00000000  0.91941000  1.0
  Rh  Rh9  1  0.75000000  0.00000000  0.02836000  1.0
  Rh  Rh10  1  0.75000000  0.50000000  0.02836000  1.0
  Rh  Rh11  1  0.75335000  0.50000000  0.91725000  1.0
  C  C12  1  0.74247000  0.50000000  0.83996000  1.0
  O  O13  1  0.74411000  0.50000000  0.79188000  1.0
