# generated using pymatgen
data_Li8Al8Ag16C
_symmetry_space_group_name_H-M   Pm
_cell_length_a   6.40528000
_cell_length_b   9.05843000
_cell_length_c   26.79380000
_cell_angle_alpha   90.00000000
_cell_angle_beta   90.00000000
_cell_angle_gamma   90.00000000
_symmetry_Int_Tables_number   6
_chemical_formula_structural   Li8Al8Ag16C
_chemical_formula_sum   'Li8 Al8 Ag16 C1'
_cell_volume   1554.62398264
_cell_formula_units_Z   1
loop_
 _symmetry_equiv_pos_site_id
 _symmetry_equiv_pos_as_xyz
  1  'x, y, z'
  2  'x, -y, z'
loop_
 _atom_site_type_symbol
 _atom_site_label
 _atom_site_symmetry_multiplicity
 _atom_site_fract_x
 _atom_site_fract_y
 _atom_site_fract_z
 _atom_site_occupancy
  Li  Li0  2  0.00000000  0.25000000  0.87322000  1.0
  Li  Li1  2  0.00303000  0.25022000  0.03991000  1.0
  Li  Li2  1  0.48751000  0.50000000  0.13103000  1.0
  Li  Li3  1  0.50000000  0.00000000  0.95774000  1.0
  Li  Li4  1  0.50000000  0.50000000  0.95774000  1.0
  Li  Li5  1  0.52847000  0.00000000  0.13867000  1.0
  Al  Al6  2  0.50000000  0.25000000  0.87322000  1.0
  Al  Al7  2  0.50090000  0.25304000  0.04183000  1.0
  Al  Al8  1  0.00000000  0.00000000  0.95774000  1.0
  Al  Al9  1  0.00000000  0.50000000  0.95774000  1.0
  Al  Al10  1  0.01914000  0.50000000  0.12817000  1.0
  Al  Al11  1  0.93482000  0.00000000  0.13508000  1.0
  Ag  Ag12  2  0.24061000  0.24754000  0.12493000  1.0
  Ag  Ag13  2  0.25000000  0.25000000  0.95774000  1.0
  Ag  Ag14  2  0.75000000  0.25000000  0.95774000  1.0
  Ag  Ag15  2  0.76179000  0.26489000  0.12354000  1.0
  Ag  Ag16  1  0.24664000  0.00000000  0.04263000  1.0
  Ag  Ag17  1  0.25000000  0.00000000  0.87322000  1.0
  Ag  Ag18  1  0.25000000  0.50000000  0.87322000  1.0
  Ag  Ag19  1  0.25363000  0.50000000  0.04273000  1.0
  Ag  Ag20  1  0.74283000  0.00000000  0.04124000  1.0
  Ag  Ag21  1  0.75000000  0.00000000  0.87322000  1.0
  Ag  Ag22  1  0.75000000  0.50000000  0.87322000  1.0
  Ag  Ag23  1  0.75440000  0.50000000  0.04254000  1.0
  C  C24  1  0.22640000  0.00000000  0.13061000  1.0
