# generated using pymatgen
data_Li8Y8In8Au8CO
_symmetry_space_group_name_H-M   'P 1'
_cell_length_a   6.89380000
_cell_length_b   9.74930000
_cell_length_c   27.31200000
_cell_angle_alpha   90.00000000
_cell_angle_beta   90.00000000
_cell_angle_gamma   90.00000000
_symmetry_Int_Tables_number   1
_chemical_formula_structural   Li8Y8In8Au8CO
_chemical_formula_sum   'Li8 Y8 In8 Au8 C1 O1'
_cell_volume   1835.63199117
_cell_formula_units_Z   1
loop_
 _symmetry_equiv_pos_site_id
 _symmetry_equiv_pos_as_xyz
  1  'x, y, z'
loop_
 _atom_site_type_symbol
 _atom_site_label
 _atom_site_symmetry_multiplicity
 _atom_site_fract_x
 _atom_site_fract_y
 _atom_site_fract_z
 _atom_site_occupancy
  Li  Li0  1  0.00000000  0.25000000  0.95538000  1.0
  Li  Li1  1  0.00000000  0.75000000  0.95538000  1.0
  Li  Li2  1  0.50000000  0.50000000  0.86614000  1.0
  Li  Li3  1  0.50000000  0.00000000  0.86614000  1.0
  Li  Li4  1  0.16646000  0.75408000  0.18297000  1.0
  Li  Li5  1  0.16644000  0.24590000  0.18297000  1.0
  Li  Li6  1  0.51246000  0.00000000  0.04761000  1.0
  Li  Li7  1  0.51046000  0.49999000  0.04971000  1.0
  Y  Y8  1  0.75000000  0.00000000  0.95538000  1.0
  Y  Y9  1  0.75000000  0.50000000  0.95538000  1.0
  Y  Y10  1  0.25000000  0.25000000  0.86614000  1.0
  Y  Y11  1  0.25000000  0.75000000  0.86614000  1.0
  Y  Y12  1  0.78926000  0.50000000  0.13559000  1.0
  Y  Y13  1  0.78770000  0.00000000  0.13663000  1.0
  Y  Y14  1  0.24361000  0.74945000  0.05054000  1.0
  Y  Y15  1  0.24360000  0.25054000  0.05055000  1.0
  In  In16  1  0.25000000  0.00000000  0.95538000  1.0
  In  In17  1  0.25000000  0.50000000  0.95538000  1.0
  In  In18  1  0.75000000  0.25000000  0.86614000  1.0
  In  In19  1  0.75000000  0.75000000  0.86614000  1.0
  In  In20  1  0.26448000  0.50000000  0.13851000  1.0
  In  In21  1  0.27221000  0.00000000  0.13461000  1.0
  In  In22  1  0.75616000  0.75061000  0.04381000  1.0
  In  In23  1  0.75615000  0.24937000  0.04381000  1.0
  Au  Au24  1  0.00000000  0.00000000  0.86614000  1.0
  Au  Au25  1  0.00000000  0.50000000  0.86614000  1.0
  Au  Au26  1  0.50000000  0.75000000  0.95538000  1.0
  Au  Au27  1  0.50000000  0.25000000  0.95538000  1.0
  Au  Au28  1  0.00123000  0.49999000  0.04341000  1.0
  Au  Au29  1  0.00330000  0.00000000  0.04211000  1.0
  Au  Au30  1  0.52534000  0.25286000  0.13178000  1.0
  Au  Au31  1  0.52538000  0.74713000  0.13177000  1.0
  C  C32  1  0.90032000  0.00016000  0.22080000  1.0
  O  O33  1  0.94122000  0.00017000  0.26220000  1.0
