# generated using pymatgen
data_Li4Al4Ag4Ge4C
_symmetry_space_group_name_H-M   'P 1'
_cell_length_a   5.86609000
_cell_length_b   7.71364000
_cell_length_c   24.39060000
_cell_angle_alpha   90.00000000
_cell_angle_beta   90.00000000
_cell_angle_gamma   90.00000000
_symmetry_Int_Tables_number   1
_chemical_formula_structural   Li4Al4Ag4Ge4C
_chemical_formula_sum   'Li4 Al4 Ag4 Ge4 C1'
_cell_volume   1103.64797809
_cell_formula_units_Z   1
loop_
 _symmetry_equiv_pos_site_id
 _symmetry_equiv_pos_as_xyz
  1  'x, y, z'
loop_
 _atom_site_type_symbol
 _atom_site_label
 _atom_site_symmetry_multiplicity
 _atom_site_fract_x
 _atom_site_fract_y
 _atom_site_fract_z
 _atom_site_occupancy
  Li  Li0  1  0.77368000  0.75001000  0.97302000  1.0
  Li  Li1  1  0.29777000  0.75000000  0.09001000  1.0
  Li  Li2  1  0.75733000  0.24999000  0.95950000  1.0
  Li  Li3  1  0.29777000  0.25000000  0.09001000  1.0
  Al  Al4  1  0.27911000  0.74999000  0.97645000  1.0
  Al  Al5  1  0.79777000  0.75000000  0.09001000  1.0
  Al  Al6  1  0.23641000  0.24997000  0.96674000  1.0
  Al  Al7  1  0.79777000  0.25000000  0.09001000  1.0
  Ag  Ag8  1  0.03165000  0.96573000  0.90837000  1.0
  Ag  Ag9  1  0.53185000  0.00000000  0.03000000  1.0
  Ag  Ag10  1  0.03158000  0.53418000  0.90840000  1.0
  Ag  Ag11  1  0.53185000  0.50000000  0.03000000  1.0
  Ge  Ge12  1  0.53105000  0.93716000  0.89257000  1.0
  Ge  Ge13  1  0.03185000  0.00000000  0.03000000  1.0
  Ge  Ge14  1  0.53119000  0.56308000  0.89250000  1.0
  Ge  Ge15  1  0.03185000  0.50000000  0.03000000  1.0
  C  C16  1  0.75603000  0.75015000  0.88224000  1.0
