# generated using pymatgen
data_Sc16Pt16C
_symmetry_space_group_name_H-M   Pm
_cell_length_a   6.65024000
_cell_length_b   9.40485000
_cell_length_c   27.05360000
_cell_angle_alpha   90.00000000
_cell_angle_beta   90.00000000
_cell_angle_gamma   90.00000000
_symmetry_Int_Tables_number   6
_chemical_formula_structural   Sc16Pt16C
_chemical_formula_sum   'Sc16 Pt16 C1'
_cell_volume   1692.05414665
_cell_formula_units_Z   1
loop_
 _symmetry_equiv_pos_site_id
 _symmetry_equiv_pos_as_xyz
  1  'x, y, z'
  2  'x, -y, z'
loop_
 _atom_site_type_symbol
 _atom_site_label
 _atom_site_symmetry_multiplicity
 _atom_site_fract_x
 _atom_site_fract_y
 _atom_site_fract_z
 _atom_site_occupancy
  Sc  Sc0  2  0.25000000  0.25000000  0.95655000  1.0
  Sc  Sc1  2  0.25011000  0.24549000  0.13059000  1.0
  Sc  Sc2  2  0.75000000  0.25000000  0.95655000  1.0
  Sc  Sc3  2  0.75017000  0.25501000  0.13034000  1.0
  Sc  Sc4  1  0.24999000  0.50000000  0.04233000  1.0
  Sc  Sc5  1  0.25000000  0.00000000  0.86964000  1.0
  Sc  Sc6  1  0.25000000  0.50000000  0.86964000  1.0
  Sc  Sc7  1  0.25017000  0.00000000  0.04627000  1.0
  Sc  Sc8  1  0.75000000  0.00000000  0.86964000  1.0
  Sc  Sc9  1  0.75000000  0.50000000  0.86964000  1.0
  Sc  Sc10  1  0.75003000  0.50000000  0.04338000  1.0
  Sc  Sc11  1  0.75011000  0.00000000  0.04138000  1.0
  Pt  Pt12  2  0.00000000  0.25000000  0.86964000  1.0
  Pt  Pt13  2  0.00110000  0.25080000  0.04282000  1.0
  Pt  Pt14  2  0.49897000  0.25084000  0.04280000  1.0
  Pt  Pt15  2  0.50000000  0.25000000  0.86964000  1.0
  Pt  Pt16  1  -0.00000000  0.50000000  0.95655000  1.0
  Pt  Pt17  1  -0.00000000  0.00000000  0.95655000  1.0
  Pt  Pt18  1  0.00585000  0.50000000  0.12160000  1.0
  Pt  Pt19  1  0.49424000  0.50000000  0.12159000  1.0
  Pt  Pt20  1  0.50000000  0.00000000  0.95655000  1.0
  Pt  Pt21  1  0.50000000  0.50000000  0.95655000  1.0
  Pt  Pt22  1  0.54595000  0.00000000  0.12689000  1.0
  Pt  Pt23  1  0.95526000  0.00000000  0.12682000  1.0
  C  C24  1  0.25073000  0.00000000  0.13551000  1.0
