data_image0
_chemical_formula_structural       Li8Al8Ag8Sn8
_chemical_formula_sum              "Li8 Al8 Ag8 Sn8"
_cell_length_a       8.66686
_cell_length_b       8.16098
_cell_length_c       26.4201
_cell_angle_alpha    90
_cell_angle_beta     90
_cell_angle_gamma    90

_space_group_name_H-M_alt    "P 1"
_space_group_IT_number       1

loop_
  _space_group_symop_operation_xyz
  'x, y, z'

loop_
  _atom_site_type_symbol
  _atom_site_label
  _atom_site_symmetry_multiplicity
  _atom_site_fract_x
  _atom_site_fract_y
  _atom_site_fract_z
  _atom_site_occupancy
  Li  Li1       1.0  0.00000  0.25000  0.95950  1.0000
  Li  Li2       1.0  0.00000  0.25000  0.12150  1.0000
  Li  Li3       1.0  0.00000  0.75000  0.95950  1.0000
  Li  Li4       1.0  0.00000  0.75000  0.12150  1.0000
  Li  Li5       1.0  0.50000  0.25000  0.95950  1.0000
  Li  Li6       1.0  0.50000  0.25000  0.12150  1.0000
  Li  Li7       1.0  0.50000  0.75000  0.95950  1.0000
  Li  Li8       1.0  0.50000  0.75000  0.12150  1.0000
  Al  Al1       1.0  0.25000  0.25000  0.87850  1.0000
  Al  Al2       1.0  0.25000  0.25000  0.04050  1.0000
  Al  Al3       1.0  0.25000  0.75000  0.87850  1.0000
  Al  Al4       1.0  0.25000  0.75000  0.04050  1.0000
  Al  Al5       1.0  0.75000  0.25000  0.87850  1.0000
  Al  Al6       1.0  0.75000  0.25000  0.04050  1.0000
  Al  Al7       1.0  0.75000  0.75000  0.87850  1.0000
  Al  Al8       1.0  0.75000  0.75000  0.04050  1.0000
  Ag  Ag1       1.0  0.00000  0.00000  0.87850  1.0000
  Ag  Ag2       1.0  0.00000  0.00000  0.04050  1.0000
  Ag  Ag3       1.0  0.00000  0.50000  0.87850  1.0000
  Ag  Ag4       1.0  0.00000  0.50000  0.04050  1.0000
  Ag  Ag5       1.0  0.50000  0.00000  0.87850  1.0000
  Ag  Ag6       1.0  0.50000  0.00000  0.04050  1.0000
  Ag  Ag7       1.0  0.50000  0.50000  0.87850  1.0000
  Ag  Ag8       1.0  0.50000  0.50000  0.04050  1.0000
  Sn  Sn1       1.0  0.25000  0.00000  0.95950  1.0000
  Sn  Sn2       1.0  0.25000  0.00000  0.12150  1.0000
  Sn  Sn3       1.0  0.25000  0.50000  0.95950  1.0000
  Sn  Sn4       1.0  0.25000  0.50000  0.12150  1.0000
  Sn  Sn5       1.0  0.75000  0.00000  0.95950  1.0000
  Sn  Sn6       1.0  0.75000  0.00000  0.12150  1.0000
  Sn  Sn7       1.0  0.75000  0.50000  0.95950  1.0000
  Sn  Sn8       1.0  0.75000  0.50000  0.12150  1.0000
