# generated using pymatgen
data_TiZn3
_symmetry_space_group_name_H-M   Pmm2
_cell_length_a   3.93924500
_cell_length_b   5.57094000
_cell_length_c   24.17820000
_cell_angle_alpha   90.00000000
_cell_angle_beta   90.00000000
_cell_angle_gamma   90.00000000
_symmetry_Int_Tables_number   25
_chemical_formula_structural   TiZn3
_chemical_formula_sum   'Ti2 Zn6'
_cell_volume   530.59779299
_cell_formula_units_Z   2
loop_
 _symmetry_equiv_pos_site_id
 _symmetry_equiv_pos_as_xyz
  1  'x, y, z'
  2  '-x, -y, z'
  3  '-x, y, z'
  4  'x, -y, z'
loop_
 _atom_site_type_symbol
 _atom_site_label
 _atom_site_symmetry_multiplicity
 _atom_site_fract_x
 _atom_site_fract_y
 _atom_site_fract_z
 _atom_site_occupancy
  Ti  Ti0  1  0.00000000  0.00000000  0.91360000  1.0
  Ti  Ti1  1  0.00000000  0.50000000  0.02975000  1.0
  Zn  Zn2  2  0.50000000  0.25000000  0.97120000  1.0
  Zn  Zn3  2  0.50000000  0.25188000  0.08486000  1.0
  Zn  Zn4  1  0.00000000  0.00000000  0.03330000  1.0
  Zn  Zn5  1  0.00000000  0.50000000  0.91360000  1.0
