# generated using pymatgen
data_Zr3Al
_symmetry_space_group_name_H-M   Pmm2
_cell_length_a   4.38270000
_cell_length_b   6.19807000
_cell_length_c   24.64860000
_cell_angle_alpha   90.00000000
_cell_angle_beta   90.00000000
_cell_angle_gamma   90.00000000
_symmetry_Int_Tables_number   25
_chemical_formula_structural   Zr3Al
_chemical_formula_sum   'Zr6 Al2'
_cell_volume   669.56150624
_cell_formula_units_Z   2
loop_
 _symmetry_equiv_pos_site_id
 _symmetry_equiv_pos_as_xyz
  1  'x, y, z'
  2  '-x, -y, z'
  3  '-x, y, z'
  4  'x, -y, z'
loop_
 _atom_site_type_symbol
 _atom_site_label
 _atom_site_symmetry_multiplicity
 _atom_site_fract_x
 _atom_site_fract_y
 _atom_site_fract_z
 _atom_site_occupancy
  Zr  Zr0  2  0.50000000  0.25000000  0.90570000  1.0
  Zr  Zr1  2  0.50000000  0.26089000  0.02864000  1.0
  Zr  Zr2  1  0.00000000  0.00000000  0.96857000  1.0
  Zr  Zr3  1  0.00000000  0.50000000  0.09027000  1.0
  Al  Al4  1  0.00000000  0.00000000  0.08601000  1.0
  Al  Al5  1  0.00000000  0.50000000  0.96857000  1.0
