# generated using pymatgen
data_Li4Mg4In4Pb4CO
_symmetry_space_group_name_H-M   Cmm2
_cell_length_a   10.06105469
_cell_length_b   10.06105469
_cell_length_c   25.33570000
_cell_angle_alpha   90.00000000
_cell_angle_beta   90.00000000
_cell_angle_gamma   90.00000000
_symmetry_Int_Tables_number   35
_chemical_formula_structural   Li4Mg4In4Pb4CO
_chemical_formula_sum   'Li8 Mg8 In8 Pb8 C2 O2'
_cell_volume   2564.60171148
_cell_formula_units_Z   2
loop_
 _symmetry_equiv_pos_site_id
 _symmetry_equiv_pos_as_xyz
  1  'x, y, z'
  2  '-x, -y, z'
  3  '-x, y, z'
  4  'x, -y, z'
  5  'x+1/2, y+1/2, z'
  6  '-x+1/2, -y+1/2, z'
  7  '-x+1/2, y+1/2, z'
  8  'x+1/2, -y+1/2, z'
loop_
 _atom_site_type_symbol
 _atom_site_label
 _atom_site_symmetry_multiplicity
 _atom_site_fract_x
 _atom_site_fract_y
 _atom_site_fract_z
 _atom_site_occupancy
  Li  Li0  4  0.25000000  0.25000000  0.10248000  1.0
  Li  Li1  2  0.00000000  0.00000000  0.96490000  1.0
  Li  Li2  2  0.00000000  0.50000000  0.96490000  1.0
  Mg  Mg3  4  0.25000000  0.25000000  0.96490000  1.0
  Mg  Mg4  2  0.00000000  0.00000000  0.11668000  1.0
  Mg  Mg5  2  0.00000000  0.50000000  0.09772000  1.0
  In  In6  4  0.00000000  0.24285500  0.03652000  1.0
  In  In7  4  0.25000000  0.00000000  0.89470000  1.0
  Pb  Pb8  4  0.00000000  0.25000000  0.89470000  1.0
  Pb  Pb9  4  0.23997500  0.00000000  0.04073000  1.0
  C  C10  2  0.00000000  0.50000000  0.18451000  1.0
  O  O11  2  0.00000000  0.50000000  0.22993000  1.0
