# generated using pymatgen
data_Mg8In8Cu8Pd8CO
_symmetry_space_group_name_H-M   'P 1'
_cell_length_a   9.13520000
_cell_length_b   6.45956000
_cell_length_c   26.85140000
_cell_angle_alpha   90.00000000
_cell_angle_beta   90.00000000
_cell_angle_gamma   90.00000000
_symmetry_Int_Tables_number   1
_chemical_formula_structural   Mg8In8Cu8Pd8CO
_chemical_formula_sum   'Mg8 In8 Cu8 Pd8 C1 O1'
_cell_volume   1584.48426507
_cell_formula_units_Z   1
loop_
 _symmetry_equiv_pos_site_id
 _symmetry_equiv_pos_as_xyz
  1  'x, y, z'
loop_
 _atom_site_type_symbol
 _atom_site_label
 _atom_site_symmetry_multiplicity
 _atom_site_fract_x
 _atom_site_fract_y
 _atom_site_fract_z
 _atom_site_occupancy
  Mg  Mg0  1  0.00000000  0.25000000  0.04253000  1.0
  Mg  Mg1  1  0.50000000  0.25000000  0.04253000  1.0
  Mg  Mg2  1  0.25000000  0.75000000  0.12758000  1.0
  Mg  Mg3  1  0.75000000  0.75000000  0.12758000  1.0
  Mg  Mg4  1  0.50000000  0.24512000  0.86784000  1.0
  Mg  Mg5  1  0.00000000  0.24419000  0.86810000  1.0
  Mg  Mg6  1  0.75114000  0.74966000  0.95826000  1.0
  Mg  Mg7  1  0.24886000  0.74966000  0.95826000  1.0
  In  In8  1  0.00000000  0.75000000  0.04253000  1.0
  In  In9  1  0.50000000  0.75000000  0.04253000  1.0
  In  In10  1  0.25000000  0.25000000  0.12758000  1.0
  In  In11  1  0.75000000  0.25000000  0.12758000  1.0
  In  In12  1  0.50000000  0.74218000  0.85982000  1.0
  In  In13  1  0.00000000  0.74312000  0.86141000  1.0
  In  In14  1  0.74846000  0.24970000  0.95639000  1.0
  In  In15  1  0.25154000  0.24970000  0.95639000  1.0
  Cu  Cu16  1  0.00000000  0.00000000  0.12758000  1.0
  Cu  Cu17  1  0.50000000  0.00000000  0.12758000  1.0
  Cu  Cu18  1  0.75000000  0.50000000  0.04253000  1.0
  Cu  Cu19  1  0.25000000  0.50000000  0.04253000  1.0
  Cu  Cu20  1  0.50000000  0.98918000  0.95262000  1.0
  Cu  Cu21  1  0.00000000  0.99640000  0.95377000  1.0
  Cu  Cu22  1  0.25001000  0.51133000  0.87515000  1.0
  Cu  Cu23  1  0.74999000  0.51133000  0.87515000  1.0
  Pd  Pd24  1  0.25000000  1.00000000  0.04253000  1.0
  Pd  Pd25  1  0.75000000  1.00000000  0.04253000  1.0
  Pd  Pd26  1  0.50000000  0.50000000  0.12758000  1.0
  Pd  Pd27  1  0.00000000  0.50000000  0.12758000  1.0
  Pd  Pd28  1  0.74975000  0.98564000  0.87614000  1.0
  Pd  Pd29  1  0.25025000  0.98564000  0.87614000  1.0
  Pd  Pd30  1  0.00000000  0.50158000  0.95547000  1.0
  Pd  Pd31  1  0.50000000  0.50789000  0.95491000  1.0
  C  C32  1  0.00000000  0.67564000  0.71776000  1.0
  O  O33  1  0.00000000  0.79128000  0.68592000  1.0
