# generated using pymatgen
data_Li2AgSn
_symmetry_space_group_name_H-M   Pmm2
_cell_length_a   4.66305000
_cell_length_b   6.59455000
_cell_length_c   26.99460000
_cell_angle_alpha   90.00000000
_cell_angle_beta   90.00000000
_cell_angle_gamma   90.00000000
_symmetry_Int_Tables_number   25
_chemical_formula_structural   Li2AgSn
_chemical_formula_sum   'Li8 Ag4 Sn4'
_cell_volume   830.10328832
_cell_formula_units_Z   4
loop_
 _symmetry_equiv_pos_site_id
 _symmetry_equiv_pos_as_xyz
  1  'x, y, z'
  2  '-x, -y, z'
  3  '-x, y, z'
  4  'x, -y, z'
loop_
 _atom_site_type_symbol
 _atom_site_label
 _atom_site_symmetry_multiplicity
 _atom_site_fract_x
 _atom_site_fract_y
 _atom_site_fract_z
 _atom_site_occupancy
  Li  Li0  2  0.00000000  0.24430000  0.86657000  1.0
  Li  Li1  2  0.00000000  0.25000000  0.04319000  1.0
  Li  Li2  2  0.50000000  0.24239000  0.95851000  1.0
  Li  Li3  2  0.50000000  0.25000000  0.12956000  1.0
  Ag  Ag4  1  0.00000000  0.00000000  0.12956000  1.0
  Ag  Ag5  1  0.00000000  0.00000000  0.95474000  1.0
  Ag  Ag6  1  0.50000000  0.50000000  0.04319000  1.0
  Ag  Ag7  1  0.50000000  0.50000000  0.87895000  1.0
  Sn  Sn8  1  0.00000000  0.50000000  0.12956000  1.0
  Sn  Sn9  1  0.00000000  0.50000000  0.95476000  1.0
  Sn  Sn10  1  0.50000000  0.00000000  0.04319000  1.0
  Sn  Sn11  1  0.50000000  0.00000000  0.87029000  1.0
