# generated using pymatgen
data_Li8Ni16Sn8CO
_symmetry_space_group_name_H-M   P1
_cell_length_a   6.04935000
_cell_length_b   8.55507000
_cell_length_c   26.41630000
_cell_angle_alpha   90.00000000
_cell_angle_beta   90.00000000
_cell_angle_gamma   90.00000000
_symmetry_Int_Tables_number   1
_chemical_formula_structural   Li8Ni16Sn8CO
_chemical_formula_sum   'Li8 Ni16 Sn8 C1 O1'
_cell_volume   1367.11254299
_cell_formula_units_Z   1
loop_
 _symmetry_equiv_pos_site_id
 _symmetry_equiv_pos_as_xyz
  1  'x, y, z'
loop_
 _atom_site_type_symbol
 _atom_site_label
 _atom_site_symmetry_multiplicity
 _atom_site_fract_x
 _atom_site_fract_y
 _atom_site_fract_z
 _atom_site_occupancy
  Li  Li0  1  0.00000000  0.00000000  0.87855000  1.0
  Li  Li1  1  0.00000000  0.50000000  0.87855000  1.0
  Li  Li2  1  0.49999000  0.25000000  0.12854000  1.0
  Li  Li3  1  0.49999000  0.75000000  0.12851000  1.0
  Li  Li4  1  0.50000000  0.25000000  0.95952000  1.0
  Li  Li5  1  0.50000000  0.75000000  0.95952000  1.0
  Li  Li6  1  0.99999000  0.00125000  0.03528000  1.0
  Li  Li7  1  0.99999000  0.49877000  0.03528000  1.0
  Ni  Ni8  1  0.21625000  0.50004000  0.11194000  1.0
  Ni  Ni9  1  0.21625000  0.99994000  0.11193000  1.0
  Ni  Ni10  1  0.23828000  0.75005000  0.04410000  1.0
  Ni  Ni11  1  0.24214000  0.24997000  0.04388000  1.0
  Ni  Ni12  1  0.25000000  0.00000000  0.95952000  1.0
  Ni  Ni13  1  0.25000000  0.25000000  0.87855000  1.0
  Ni  Ni14  1  0.25000000  0.50000000  0.95952000  1.0
  Ni  Ni15  1  0.25000000  0.75000000  0.87855000  1.0
  Ni  Ni16  1  0.75000000  0.00000000  0.95952000  1.0
  Ni  Ni17  1  0.75000000  0.25000000  0.87855000  1.0
  Ni  Ni18  1  0.75000000  0.50000000  0.95952000  1.0
  Ni  Ni19  1  0.75000000  0.75000000  0.87855000  1.0
  Ni  Ni20  1  0.75785000  0.24997000  0.04388000  1.0
  Ni  Ni21  1  0.76169000  0.75005000  0.04409000  1.0
  Ni  Ni22  1  0.78373000  0.50004000  0.11194000  1.0
  Ni  Ni23  1  0.78373000  0.99994000  0.11193000  1.0
  Sn  Sn24  1  0.00000000  0.25000000  0.95952000  1.0
  Sn  Sn25  1  0.00000000  0.75000000  0.95952000  1.0
  Sn  Sn26  1  0.49999000  0.50073000  0.04030000  1.0
  Sn  Sn27  1  0.49999000  0.99929000  0.04028000  1.0
  Sn  Sn28  1  0.50000000  0.00000000  0.87855000  1.0
  Sn  Sn29  1  0.50000000  0.50000000  0.87855000  1.0
  Sn  Sn30  1  0.99999000  0.24999000  0.13060000  1.0
  Sn  Sn31  1  0.99999000  0.74998000  0.13122000  1.0
  C  C32  1  0.00045000  0.24995000  0.28726000  1.0
  O  O33  1  0.99992000  0.25002000  0.33022000  1.0
