# generated using pymatgen
data_Li4Y4Ge4Pd4CO
_symmetry_space_group_name_H-M   'P 1'
_cell_length_a   6.55453000
_cell_length_b   6.55453000
_cell_length_c   24.91590000
_cell_angle_alpha   90.00000000
_cell_angle_beta   90.00000000
_cell_angle_gamma   90.00000000
_symmetry_Int_Tables_number   1
_chemical_formula_structural   Li4Y4Ge4Pd4CO
_chemical_formula_sum   'Li4 Y4 Ge4 Pd4 C1 O1'
_cell_volume   1070.43349530
_cell_formula_units_Z   1
loop_
 _symmetry_equiv_pos_site_id
 _symmetry_equiv_pos_as_xyz
  1  'x, y, z'
loop_
 _atom_site_type_symbol
 _atom_site_label
 _atom_site_symmetry_multiplicity
 _atom_site_fract_x
 _atom_site_fract_y
 _atom_site_fract_z
 _atom_site_occupancy
  Li  Li0  1  0.74999500  0.74999500  0.03288000  1
  Li  Li1  1  0.75002000  0.25000000  0.88122000  1
  Li  Li2  1  0.25000000  0.75002000  0.88122000  1
  Li  Li3  1  0.24999500  0.24999500  0.03288000  1
  Y  Y4  1  1.00000000  0.49999000  0.09865000  1
  Y  Y5  1  0.99800000  0.99800000  0.96694000  1
  Y  Y6  1  0.50198500  0.50198500  0.96694000  1
  Y  Y7  1  0.49999000  1.00000000  0.09865000  1
  Ge  Ge8  1  0.99999500  0.99999500  0.09865000  1
  Ge  Ge9  1  0.99619000  0.50382000  0.96092000  1
  Ge  Ge10  1  0.50382000  0.99619000  0.96092000  1
  Ge  Ge11  1  0.49999500  0.49999500  0.09865000  1
  Pd  Pd12  1  0.25000000  0.74999000  0.03288000  1
  Pd  Pd13  1  0.24999000  0.24999000  0.90931000  1
  Pd  Pd14  1  0.74998500  0.74998500  0.89677000  1
  Pd  Pd15  1  0.74999000  0.25000000  0.03288000  1
  C  C16  1  0.74991000  0.74991000  0.81850000  1
  O  O17  1  0.74999000  0.74999000  0.77192000  1
