# generated using pymatgen
data_Li4Y4Ge4Pd4CO
_symmetry_space_group_name_H-M   Cm
_cell_length_a   9.26950522
_cell_length_b   9.26950522
_cell_length_c   24.91590000
_cell_angle_alpha   90.00000000
_cell_angle_beta   90.00000000
_cell_angle_gamma   90.00000000
_symmetry_Int_Tables_number   8
_chemical_formula_structural   Li4Y4Ge4Pd4CO
_chemical_formula_sum   'Li8 Y8 Ge8 Pd8 C2 O2'
_cell_volume   2140.86699060
_cell_formula_units_Z   2
loop_
 _symmetry_equiv_pos_site_id
 _symmetry_equiv_pos_as_xyz
  1  'x, y, z'
  2  'x, -y, z'
  3  'x+1/2, y+1/2, z'
  4  'x+1/2, -y+1/2, z'
loop_
 _atom_site_type_symbol
 _atom_site_label
 _atom_site_symmetry_multiplicity
 _atom_site_fract_x
 _atom_site_fract_y
 _atom_site_fract_z
 _atom_site_occupancy
  Li  Li0  4  0.00001000  0.24999000  0.11878000  1.0
  Li  Li1  2  0.24999500  0.00000000  0.96712000  1.0
  Li  Li2  2  0.24999500  0.50000000  0.96712000  1.0
  Y  Y3  4  0.24999500  0.24999500  0.90135000  1.0
  Y  Y4  2  0.00198500  0.50000000  0.03306000  1.0
  Y  Y5  2  0.49800000  0.50000000  0.03306000  1.0
  Ge  Ge6  4  0.25000500  0.25381500  0.03908000  1.0
  Ge  Ge7  2  0.49999500  0.00000000  0.90135000  1.0
  Ge  Ge8  2  0.49999500  0.50000000  0.90135000  1.0
  Pd  Pd9  4  0.49999500  0.24999500  0.96712000  1.0
  Pd  Pd10  2  0.24998500  0.50000000  0.10323000  1.0
  Pd  Pd11  2  0.24999000  0.00000000  0.09069000  1.0
  C  C12  2  0.24991000  0.50000000  0.18150000  1.0
  O  O13  2  0.24999000  0.50000000  0.22808000  1.0
