data_image0
_chemical_formula_structural       Li4Al4Ag4Pd4C
_chemical_formula_sum              "Li4 Al4 Ag4 Pd4 C1"
_cell_length_a       6.21941
_cell_length_b       6.21941
_cell_length_c       24.6646
_cell_angle_alpha    90
_cell_angle_beta     90
_cell_angle_gamma    90

_space_group_name_H-M_alt    "P 1"
_space_group_IT_number       1

loop_
  _space_group_symop_operation_xyz
  'x, y, z'

loop_
  _atom_site_type_symbol
  _atom_site_label
  _atom_site_symmetry_multiplicity
  _atom_site_fract_x
  _atom_site_fract_y
  _atom_site_fract_z
  _atom_site_occupancy
  Li  Li1       1.0  0.24953  0.24947  0.03761  1.0000
  Li  Li2       1.0  0.25000  0.75000  0.90544  1.0000
  Li  Li3       1.0  0.75000  0.25000  0.90544  1.0000
  Li  Li4       1.0  0.75053  0.75047  0.03761  1.0000
  Al  Al1       1.0  0.74979  0.25021  0.02803  1.0000
  Al  Al2       1.0  0.75000  0.75000  0.90544  1.0000
  Al  Al3       1.0  0.25000  0.25000  0.90544  1.0000
  Al  Al4       1.0  0.25018  0.74982  0.03469  1.0000
  Ag  Ag1       1.0  0.01589  0.98410  0.10686  1.0000
  Ag  Ag2       1.0  0.00000  0.50000  0.96848  1.0000
  Ag  Ag3       1.0  0.50000  0.00000  0.96848  1.0000
  Ag  Ag4       1.0  0.48494  0.51506  0.10657  1.0000
  Pd  Pd1       1.0  0.98251  0.48233  0.09511  1.0000
  Pd  Pd2       1.0  0.00000  0.00000  0.96848  1.0000
  Pd  Pd3       1.0  0.50000  0.50000  0.96848  1.0000
  Pd  Pd4       1.0  0.51767  0.01749  0.09511  1.0000
  C   C1        1.0  0.75090  0.24910  0.11161  1.0000
