# generated using pymatgen
data_Li4Al4Ag4Pd4C
_symmetry_space_group_name_H-M   Cm
_cell_length_a   8.79557397
_cell_length_b   8.79557397
_cell_length_c   24.66460000
_cell_angle_alpha   90.00000000
_cell_angle_beta   90.00000000
_cell_angle_gamma   90.00000000
_symmetry_Int_Tables_number   8
_chemical_formula_structural   Li4Al4Ag4Pd4C
_chemical_formula_sum   'Li8 Al8 Ag8 Pd8 C2'
_cell_volume   1908.10578186
_cell_formula_units_Z   2
loop_
 _symmetry_equiv_pos_site_id
 _symmetry_equiv_pos_as_xyz
  1  'x, y, z'
  2  'x, -y, z'
  3  'x+1/2, y+1/2, z'
  4  'x+1/2, -y+1/2, z'
loop_
 _atom_site_type_symbol
 _atom_site_label
 _atom_site_symmetry_multiplicity
 _atom_site_fract_x
 _atom_site_fract_y
 _atom_site_fract_z
 _atom_site_occupancy
  Li  Li0  4  0.00003000  0.24950000  0.03761000  1.0
  Li  Li1  2  0.25000000  0.00000000  0.90544000  1.0
  Li  Li2  2  0.25000000  0.50000000  0.90544000  1.0
  Al  Al3  4  0.00000000  0.25000000  0.90544000  1.0
  Al  Al4  2  0.24979000  0.50000000  0.02803000  1.0
  Al  Al5  2  0.25018000  0.00000000  0.03469000  1.0
  Ag  Ag6  4  0.25000000  0.25000000  0.96848000  1.0
  Ag  Ag7  2  0.01589500  0.00000000  0.10686000  1.0
  Ag  Ag8  2  0.48494000  0.00000000  0.10657000  1.0
  Pd  Pd9  4  0.25009000  0.26758000  0.09511000  1.0
  Pd  Pd10  2  0.00000000  0.00000000  0.96848000  1.0
  Pd  Pd11  2  0.00000000  0.50000000  0.96848000  1.0
  C  C12  2  0.25090000  0.50000000  0.11161000  1.0
