# generated using pymatgen
data_AlVCo2
_symmetry_space_group_name_H-M   'P 1'
_cell_length_a   4.07855656
_cell_length_b   4.07855656
_cell_length_c   24.32600000
_cell_angle_alpha   90.00000000
_cell_angle_beta   90.00000000
_cell_angle_gamma   90.00000000
_symmetry_Int_Tables_number   1
_chemical_formula_structural   AlVCo2
_chemical_formula_sum   'Al2 V2 Co4'
_cell_volume   404.65385372
_cell_formula_units_Z   2
loop_
 _symmetry_equiv_pos_site_id
 _symmetry_equiv_pos_as_xyz
  1  'x, y, z'
loop_
 _atom_site_type_symbol
 _atom_site_label
 _atom_site_symmetry_multiplicity
 _atom_site_fract_x
 _atom_site_fract_y
 _atom_site_fract_z
 _atom_site_occupancy
  Al  Al0  1  0.00000000  0.00000000  0.91108000  1.0
  Al  Al1  1  0.50000000  0.50000000  0.02964000  1.0
  V  V2  1  0.00000000  0.00000000  0.02964000  1.0
  V  V3  1  0.50000000  0.50000000  0.91108000  1.0
  Co  Co4  1  0.50000000  0.00000000  0.97036000  1.0
  Co  Co5  1  0.50000000  0.00000000  0.08892000  1.0
  Co  Co6  1  0.00000000  0.50000000  0.97036000  1.0
  Co  Co7  1  0.00000000  0.50000000  0.08892000  1.0
