# generated using pymatgen
data_Li4Sc4Ge4Pd4C
_symmetry_space_group_name_H-M   P2
_cell_length_a   6.30999000
_cell_length_b   24.73250000
_cell_length_c   6.30999000
_cell_angle_alpha   90.00000000
_cell_angle_beta   90.00000000
_cell_angle_gamma   90.00000000
_symmetry_Int_Tables_number   3
_chemical_formula_structural   Li4Sc4Ge4Pd4C
_chemical_formula_sum   'Li4 Sc4 Ge4 Pd4 C1'
_cell_volume   984.74857201
_cell_formula_units_Z   1
loop_
 _symmetry_equiv_pos_site_id
 _symmetry_equiv_pos_as_xyz
  1  'x, y, z'
  2  '-x, y, -z'
loop_
 _atom_site_type_symbol
 _atom_site_label
 _atom_site_symmetry_multiplicity
 _atom_site_fract_x
 _atom_site_fract_y
 _atom_site_fract_z
 _atom_site_occupancy
  Li  Li0  2  0.25000000  0.96811000  0.75000000  1.0
  Li  Li1  2  0.25381000  0.12506000  0.24589000  1.0
  Sc  Sc2  1  0.00000000  0.03276000  0.00000000  1.0
  Sc  Sc3  1  0.00000000  0.90433000  0.50000000  1.0
  Sc  Sc4  1  0.50000000  0.03278000  0.50000000  1.0
  Sc  Sc5  1  0.50000000  0.90433000  0.00000000  1.0
  Ge  Ge6  1  0.00000000  0.04412000  0.50000000  1.0
  Ge  Ge7  1  0.00000000  0.90433000  0.00000000  1.0
  Ge  Ge8  1  0.50000000  0.02526000  0.00000000  1.0
  Ge  Ge9  1  0.50000000  0.90433000  0.50000000  1.0
  Pd  Pd10  2  0.25000000  0.96811000  0.25000000  1.0
  Pd  Pd11  2  0.27168000  0.09279000  0.77174000  1.0
  C  C12  1  0.50000000  0.11012000  0.00000000  1.0
