# generated using pymatgen
data_Ti4In4Cu8C
_symmetry_space_group_name_H-M   'P 1'
_cell_length_a   6.30953000
_cell_length_b   6.30953000
_cell_length_c   24.73210000
_cell_angle_alpha   90.00000000
_cell_angle_beta   90.00000000
_cell_angle_gamma   90.00000000
_symmetry_Int_Tables_number   1
_chemical_formula_structural   Ti4In4Cu8C
_chemical_formula_sum   'Ti4 In4 Cu8 C1'
_cell_volume   984.58907630
_cell_formula_units_Z   1
loop_
 _symmetry_equiv_pos_site_id
 _symmetry_equiv_pos_as_xyz
  1  'x, y, z'
loop_
 _atom_site_type_symbol
 _atom_site_label
 _atom_site_symmetry_multiplicity
 _atom_site_fract_x
 _atom_site_fract_y
 _atom_site_fract_z
 _atom_site_occupancy
  Ti  Ti0  1  0.75000000  0.25000000  0.09567000  1
  Ti  Ti1  1  0.25000000  0.75000000  0.09567000  1
  Ti  Ti2  1  0.75000000  0.75000000  0.96811000  1
  Ti  Ti3  1  0.25000000  0.25000000  0.96811000  1
  In  In4  1  0.75000000  0.25000000  0.96811000  1
  In  In5  1  0.75000000  0.75000000  0.09567000  1
  In  In6  1  0.25000000  0.25000000  0.09567000  1
  In  In7  1  0.25000000  0.75000000  0.96811000  1
  Cu  Cu8  1  0.50000000  0.50000000  0.03189000  1
  Cu  Cu9  1  0.00000000  0.00000000  0.90433000  1
  Cu  Cu10  1  0.50000000  0.00000000  0.03189000  1
  Cu  Cu11  1  0.00000000  0.50000000  0.90433000  1
  Cu  Cu12  1  0.00000000  0.00000000  0.03189000  1
  Cu  Cu13  1  0.50000000  0.50000000  0.90433000  1
  Cu  Cu14  1  0.00000000  0.50000000  0.03189000  1
  Cu  Cu15  1  0.50000000  0.00000000  0.90433000  1
  C  C16  1  0.50000000  0.50000000  0.12801000  1
