data_image0
_chemical_formula_structural       Li4Al4Ag4Sn4C
_chemical_formula_sum              "Li4 Al4 Ag4 Sn4 C1"
_cell_length_a       5.95223
_cell_length_b       8.5602
_cell_length_c       24.4561
_cell_angle_alpha    90
_cell_angle_beta     90
_cell_angle_gamma    90

_space_group_name_H-M_alt    "P 1"
_space_group_IT_number       1

loop_
  _space_group_symop_operation_xyz
  'x, y, z'

loop_
  _atom_site_type_symbol
  _atom_site_label
  _atom_site_symmetry_multiplicity
  _atom_site_fract_x
  _atom_site_fract_y
  _atom_site_fract_z
  _atom_site_occupancy
  Li  Li1       1.0  0.24161  0.25013  0.02999  1.0000
  Li  Li2       1.0  0.70495  0.25000  0.90890  1.0000
  Li  Li3       1.0  0.24208  0.74998  0.03668  1.0000
  Li  Li4       1.0  0.70495  0.75000  0.90890  1.0000
  Al  Al1       1.0  0.50773  0.02661  0.10533  1.0000
  Al  Al2       1.0  0.96997  0.00000  0.96963  1.0000
  Al  Al3       1.0  0.50703  0.47300  0.10536  1.0000
  Al  Al4       1.0  0.96997  0.50000  0.96963  1.0000
  Ag  Ag1       1.0  0.06338  0.02420  0.08238  1.0000
  Ag  Ag2       1.0  0.46997  0.00000  0.96963  1.0000
  Ag  Ag3       1.0  0.06277  0.47608  0.08240  1.0000
  Ag  Ag4       1.0  0.46997  0.50000  0.96963  1.0000
  Sn  Sn1       1.0  0.73791  0.24995  0.02885  1.0000
  Sn  Sn2       1.0  0.20495  0.25000  0.90890  1.0000
  Sn  Sn3       1.0  0.74166  0.75013  0.04931  1.0000
  Sn  Sn4       1.0  0.20495  0.75000  0.90890  1.0000
  C   C1        1.0  0.47662  0.24977  0.09705  1.0000
