# generated using pymatgen
data_Li4Al4Ag4Sn4C
_symmetry_space_group_name_H-M   P1
_cell_length_a   5.95223000
_cell_length_b   8.56020000
_cell_length_c   24.45610000
_cell_angle_alpha   90.00000000
_cell_angle_beta   90.00000000
_cell_angle_gamma   90.00000000
_symmetry_Int_Tables_number   1
_chemical_formula_structural   Li4Al4Ag4Sn4C
_chemical_formula_sum   'Li4 Al4 Ag4 Sn4 C1'
_cell_volume   1246.09403647
_cell_formula_units_Z   1
loop_
 _symmetry_equiv_pos_site_id
 _symmetry_equiv_pos_as_xyz
  1  'x, y, z'
loop_
 _atom_site_type_symbol
 _atom_site_label
 _atom_site_symmetry_multiplicity
 _atom_site_fract_x
 _atom_site_fract_y
 _atom_site_fract_z
 _atom_site_occupancy
  Li  Li0  1  0.24161000  0.25013000  0.02999000  1.0
  Li  Li1  1  0.24208000  0.74998000  0.03668000  1.0
  Li  Li2  1  0.70495000  0.25000000  0.90890000  1.0
  Li  Li3  1  0.70495000  0.75000000  0.90890000  1.0
  Al  Al4  1  0.50703000  0.47300000  0.10536000  1.0
  Al  Al5  1  0.50773000  0.02661000  0.10533000  1.0
  Al  Al6  1  0.96997000  0.00000000  0.96963000  1.0
  Al  Al7  1  0.96997000  0.50000000  0.96963000  1.0
  Ag  Ag8  1  0.06277000  0.47608000  0.08240000  1.0
  Ag  Ag9  1  0.06338000  0.02420000  0.08238000  1.0
  Ag  Ag10  1  0.46997000  0.00000000  0.96963000  1.0
  Ag  Ag11  1  0.46997000  0.50000000  0.96963000  1.0
  Sn  Sn12  1  0.20495000  0.25000000  0.90890000  1.0
  Sn  Sn13  1  0.20495000  0.75000000  0.90890000  1.0
  Sn  Sn14  1  0.73791000  0.24995000  0.02885000  1.0
  Sn  Sn15  1  0.74166000  0.75013000  0.04931000  1.0
  C  C16  1  0.47662000  0.24977000  0.09705000  1.0
