# generated using pymatgen
data_Al8Fe16Mo8CO
_symmetry_space_group_name_H-M   Pmm2
_cell_length_a   5.85421000
_cell_length_b   8.27910000
_cell_length_c   26.20930000
_cell_angle_alpha   90.00000000
_cell_angle_beta   90.00000000
_cell_angle_gamma   90.00000000
_symmetry_Int_Tables_number   25
_chemical_formula_structural   Al8Fe16Mo8CO
_chemical_formula_sum   'Al8 Fe16 Mo8 C1 O1'
_cell_volume   1270.30160688
_cell_formula_units_Z   1
loop_
 _symmetry_equiv_pos_site_id
 _symmetry_equiv_pos_as_xyz
  1  'x, y, z'
  2  '-x, -y, z'
  3  '-x, y, z'
  4  'x, -y, z'
loop_
 _atom_site_type_symbol
 _atom_site_label
 _atom_site_symmetry_multiplicity
 _atom_site_fract_x
 _atom_site_fract_y
 _atom_site_fract_z
 _atom_site_occupancy
  Al  Al0  2  0.00000000  0.25000000  0.03949000  1.0
  Al  Al1  2  0.00000000  0.25000000  0.88154000  1.0
  Al  Al2  1  0.50000000  0.00000000  0.11846000  1.0
  Al  Al3  1  0.50000000  0.00000000  0.96051000  1.0
  Al  Al4  1  0.50000000  0.50000000  0.11846000  1.0
  Al  Al5  1  0.50000000  0.50000000  0.96051000  1.0
  Fe  Fe6  4  0.25000000  0.25000000  0.11846000  1.0
  Fe  Fe7  4  0.25000000  0.25000000  0.96051000  1.0
  Fe  Fe8  2  0.25000000  0.00000000  0.03949000  1.0
  Fe  Fe9  2  0.25000000  0.00000000  0.88154000  1.0
  Fe  Fe10  2  0.25000000  0.50000000  0.03949000  1.0
  Fe  Fe11  2  0.25000000  0.50000000  0.88154000  1.0
  Mo  Mo12  2  0.50000000  0.25000000  0.03949000  1.0
  Mo  Mo13  2  0.50000000  0.25000000  0.88154000  1.0
  Mo  Mo14  1  0.00000000  0.00000000  0.11846000  1.0
  Mo  Mo15  1  0.00000000  0.00000000  0.96051000  1.0
  Mo  Mo16  1  0.00000000  0.50000000  0.11846000  1.0
  Mo  Mo17  1  0.00000000  0.50000000  0.96051000  1.0
  C  C18  1  0.00000000  0.00000000  0.19095000  1.0
  O  O19  1  0.00000000  0.00000000  0.23483000  1.0
