# generated using pymatgen
data_Li8Si8Ni16CO
_symmetry_space_group_name_H-M   Pm
_cell_length_a   7.88925000
_cell_length_b   5.57854000
_cell_length_c   25.91690000
_cell_angle_alpha   90.00000000
_cell_angle_beta   90.00000000
_cell_angle_gamma   90.00000000
_symmetry_Int_Tables_number   6
_chemical_formula_structural   Li8Si8Ni16CO
_chemical_formula_sum   'Li8 Si8 Ni16 C1 O1'
_cell_volume   1140.61564179
_cell_formula_units_Z   1
loop_
 _symmetry_equiv_pos_site_id
 _symmetry_equiv_pos_as_xyz
  1  'x, y, z'
  2  'x, -y, z'
loop_
 _atom_site_type_symbol
 _atom_site_label
 _atom_site_symmetry_multiplicity
 _atom_site_fract_x
 _atom_site_fract_y
 _atom_site_fract_z
 _atom_site_occupancy
  Li  Li0  1  0.00000000  0.50000000  0.88585000  1.0
  Li  Li1  1  0.00023000  0.50000000  0.03386000  1.0
  Li  Li2  1  0.25000000  0.00000000  0.96195000  1.0
  Li  Li3  1  0.25001000  0.00000000  0.13911000  1.0
  Li  Li4  1  0.49973000  0.50000000  0.03386000  1.0
  Li  Li5  1  0.50000000  0.50000000  0.88585000  1.0
  Li  Li6  1  0.75000000  0.00000000  0.13585000  1.0
  Li  Li7  1  0.75000000  0.00000000  0.96195000  1.0
  Si  Si8  1  0.00000000  0.00000000  0.88585000  1.0
  Si  Si9  1  0.25000000  0.50000000  0.11210000  1.0
  Si  Si10  1  0.25000000  0.50000000  0.96195000  1.0
  Si  Si11  1  0.50000000  0.00000000  0.88585000  1.0
  Si  Si12  1  0.50021000  0.00000000  0.03881000  1.0
  Si  Si13  1  0.75000000  0.50000000  0.96195000  1.0
  Si  Si14  1  0.75001000  0.50000000  0.11292000  1.0
  Si  Si15  1  0.99977000  0.00000000  0.03881000  1.0
  Ni  Ni16  2  0.00000000  0.25001000  0.96195000  1.0
  Ni  Ni17  2  0.24999000  0.24367000  0.03850000  1.0
  Ni  Ni18  2  0.25000000  0.25001000  0.88585000  1.0
  Ni  Ni19  2  0.50000000  0.24999000  0.96195000  1.0
  Ni  Ni20  2  0.50037000  0.26980000  0.10789000  1.0
  Ni  Ni21  2  0.74998000  0.24470000  0.03846000  1.0
  Ni  Ni22  2  0.75000000  0.24999000  0.88585000  1.0
  Ni  Ni23  2  0.99967000  0.26973000  0.10789000  1.0
  C  C24  1  0.25005000  0.00000000  0.22133000  1.0
  O  O25  1  0.25003000  0.00000000  0.26519000  1.0
