# generated using pymatgen
data_Ga8Fe16Co8CO
_symmetry_space_group_name_H-M   'P 1'
_cell_length_a   8.20054000
_cell_length_b   5.79866000
_cell_length_c   26.15040000
_cell_angle_alpha   90.00000000
_cell_angle_beta   90.00000000
_cell_angle_gamma   90.00000000
_symmetry_Int_Tables_number   1
_chemical_formula_structural   Ga8Fe16Co8CO
_chemical_formula_sum   'Ga8 Fe16 Co8 C1 O1'
_cell_volume   1243.50756754
_cell_formula_units_Z   1
loop_
 _symmetry_equiv_pos_site_id
 _symmetry_equiv_pos_as_xyz
  1  'x, y, z'
loop_
 _atom_site_type_symbol
 _atom_site_label
 _atom_site_symmetry_multiplicity
 _atom_site_fract_x
 _atom_site_fract_y
 _atom_site_fract_z
 _atom_site_occupancy
  Ga  Ga0  1  0.00000000  0.00000000  0.11760000  1.0
  Ga  Ga1  1  0.25000000  0.50000000  0.03920000  1.0
  Ga  Ga2  1  0.75000000  0.50000000  0.03920000  1.0
  Ga  Ga3  1  0.50000000  0.00000000  0.11760000  1.0
  Ga  Ga4  1  0.50163000  0.00000000  0.96023000  1.0
  Ga  Ga5  1  0.75004000  0.50000000  0.86214000  1.0
  Ga  Ga6  1  0.24997000  0.50000000  0.87142000  1.0
  Ga  Ga7  1  0.99835000  0.00000000  0.96022000  1.0
  Fe  Fe8  1  0.00000000  0.75000000  0.03920000  1.0
  Fe  Fe9  1  0.50000000  0.25000000  0.03920000  1.0
  Fe  Fe10  1  0.00000000  0.25000000  0.03920000  1.0
  Fe  Fe11  1  0.50000000  0.75000000  0.03920000  1.0
  Fe  Fe12  1  0.75000000  0.25000000  0.11760000  1.0
  Fe  Fe13  1  0.25000000  0.75000000  0.11760000  1.0
  Fe  Fe14  1  0.75000000  0.75000000  0.11760000  1.0
  Fe  Fe15  1  0.25000000  0.25000000  0.11760000  1.0
  Fe  Fe16  1  0.50380000  0.73446000  0.88363000  1.0
  Fe  Fe17  1  0.99621000  0.26549000  0.88362000  1.0
  Fe  Fe18  1  0.50380000  0.26554000  0.88363000  1.0
  Fe  Fe19  1  0.99621000  0.73451000  0.88362000  1.0
  Fe  Fe20  1  0.24998000  0.25423000  0.95954000  1.0
  Fe  Fe21  1  0.75002000  0.73178000  0.95655000  1.0
  Fe  Fe22  1  0.24998000  0.74577000  0.95954000  1.0
  Fe  Fe23  1  0.75002000  0.26822000  0.95655000  1.0
  Co  Co24  1  0.75000000  0.00000000  0.03920000  1.0
  Co  Co25  1  0.00000000  0.50000000  0.11760000  1.0
  Co  Co26  1  0.25000000  0.00000000  0.03920000  1.0
  Co  Co27  1  0.50000000  0.50000000  0.11760000  1.0
  Co  Co28  1  0.24995000  0.00000000  0.88399000  1.0
  Co  Co29  1  0.49412000  0.50000000  0.96372000  1.0
  Co  Co30  1  0.75006000  0.00000000  0.88757000  1.0
  Co  Co31  1  0.00586000  0.50000000  0.96372000  1.0
  C  C32  1  0.24999000  0.00000000  0.81597000  1.0
  O  O33  1  0.25000000  0.00000000  0.77157000  1.0
