# generated using pymatgen
data_Al4Pt12C
_symmetry_space_group_name_H-M   'P 1'
_cell_length_a   7.89001000
_cell_length_b   5.57908000
_cell_length_c   24.18430000
_cell_angle_alpha   90.00000000
_cell_angle_beta   90.00000000
_cell_angle_gamma   90.00000000
_symmetry_Int_Tables_number   1
_chemical_formula_structural   Al4Pt12C
_chemical_formula_sum   'Al4 Pt12 C1'
_cell_volume   1064.56862892
_cell_formula_units_Z   1
loop_
 _symmetry_equiv_pos_site_id
 _symmetry_equiv_pos_as_xyz
  1  'x, y, z'
loop_
 _atom_site_type_symbol
 _atom_site_label
 _atom_site_symmetry_multiplicity
 _atom_site_fract_x
 _atom_site_fract_y
 _atom_site_fract_z
 _atom_site_occupancy
  Al  Al0  1  0.76605000  0.97541000  0.07656000  1.0
  Al  Al1  1  0.75000000  0.50000000  0.97116000  1.0
  Al  Al2  1  0.23395000  0.97541000  0.07656000  1.0
  Al  Al3  1  0.25000000  0.50000000  0.97116000  1.0
  Pt  Pt4  1  0.75013000  0.50482000  0.09078000  1.0
  Pt  Pt5  1  0.50000000  0.20216000  0.04732000  1.0
  Pt  Pt6  1  0.50000000  0.72108000  0.02762000  1.0
  Pt  Pt7  1  0.75000000  0.00000000  0.97116000  1.0
  Pt  Pt8  1  0.50000000  0.75000000  0.91349000  1.0
  Pt  Pt9  1  0.50000000  0.25000000  0.91349000  1.0
  Pt  Pt10  1  0.24987000  0.50482000  0.09078000  1.0
  Pt  Pt11  1  0.00000000  0.23360000  0.03926000  1.0
  Pt  Pt12  1  0.00000000  0.73182000  0.03189000  1.0
  Pt  Pt13  1  0.25000000  0.00000000  0.97116000  1.0
  Pt  Pt14  1  0.00000000  0.75000000  0.91349000  1.0
  Pt  Pt15  1  0.00000000  0.25000000  0.91349000  1.0
  C  C16  1  0.50000000  0.50041000  0.09653000  1.0
