# generated using pymatgen
data_Al16Rh16CO
_symmetry_space_group_name_H-M   Pm
_cell_length_a   6.00621000
_cell_length_b   8.49407000
_cell_length_c   26.37050000
_cell_angle_alpha   90.00000000
_cell_angle_beta   90.00000000
_cell_angle_gamma   90.00000000
_symmetry_Int_Tables_number   6
_chemical_formula_structural   Al16Rh16CO
_chemical_formula_sum   'Al16 Rh16 C1 O1'
_cell_volume   1345.34823335
_cell_formula_units_Z   1
loop_
 _symmetry_equiv_pos_site_id
 _symmetry_equiv_pos_as_xyz
  1  'x, y, z'
  2  'x, -y, z'
loop_
 _atom_site_type_symbol
 _atom_site_label
 _atom_site_symmetry_multiplicity
 _atom_site_fract_x
 _atom_site_fract_y
 _atom_site_fract_z
 _atom_site_occupancy
  Al  Al0  2  0.00000000  0.25000000  0.95974000  1.0
  Al  Al1  2  0.50000000  0.25000000  0.95974000  1.0
  Al  Al2  2  0.50097000  0.25470000  0.12284000  1.0
  Al  Al3  2  0.99906000  0.25475000  0.12284000  1.0
  Al  Al4  1  0.00000000  0.00000000  0.87921000  1.0
  Al  Al5  1  0.00000000  0.50000000  0.87921000  1.0
  Al  Al6  1  0.00148000  0.50000000  0.04081000  1.0
  Al  Al7  1  0.49857000  0.50000000  0.04081000  1.0
  Al  Al8  1  0.50000000  0.00000000  0.87921000  1.0
  Al  Al9  1  0.50000000  0.50000000  0.87921000  1.0
  Al  Al10  1  0.50255000  0.00000000  0.04109000  1.0
  Al  Al11  1  0.99745000  0.00000000  0.04108000  1.0
  Rh  Rh12  2  0.25000000  0.25000000  0.87921000  1.0
  Rh  Rh13  2  0.25001000  0.24405000  0.03945000  1.0
  Rh  Rh14  2  0.75000000  0.25000000  0.87921000  1.0
  Rh  Rh15  2  0.75003000  0.25016000  0.03873000  1.0
  Rh  Rh16  1  0.24983000  0.00000000  0.12538000  1.0
  Rh  Rh17  1  0.25000000  0.00000000  0.95974000  1.0
  Rh  Rh18  1  0.25000000  0.50000000  0.95974000  1.0
  Rh  Rh19  1  0.25002000  0.50000000  0.11691000  1.0
  Rh  Rh20  1  0.74999000  0.00000000  0.11796000  1.0
  Rh  Rh21  1  0.75000000  0.00000000  0.95974000  1.0
  Rh  Rh22  1  0.75000000  0.50000000  0.95974000  1.0
  Rh  Rh23  1  0.75003000  0.50000000  0.11783000  1.0
  C  C24  1  0.24925000  0.00000000  0.19680000  1.0
  O  O25  1  0.24921000  0.00000000  0.24061000  1.0
