# generated using pymatgen
data_Zn8Ni16Ge8C
_symmetry_space_group_name_H-M   'P 1'
_cell_length_a   8.31574000
_cell_length_b   5.88011000
_cell_length_c   26.23680000
_cell_angle_alpha   90.00000000
_cell_angle_beta   90.00000000
_cell_angle_gamma   90.00000000
_symmetry_Int_Tables_number   1
_chemical_formula_structural   Zn8Ni16Ge8C
_chemical_formula_sum   'Zn8 Ni16 Ge8 C1'
_cell_volume   1282.91303415
_cell_formula_units_Z   1
loop_
 _symmetry_equiv_pos_site_id
 _symmetry_equiv_pos_as_xyz
  1  'x, y, z'
loop_
 _atom_site_type_symbol
 _atom_site_label
 _atom_site_symmetry_multiplicity
 _atom_site_fract_x
 _atom_site_fract_y
 _atom_site_fract_z
 _atom_site_occupancy
  Zn  Zn0  1  0.75000000  0.00000000  0.11886000  1.0
  Zn  Zn1  1  0.00000000  0.50000000  0.03962000  1.0
  Zn  Zn2  1  0.50000000  0.50000000  0.03962000  1.0
  Zn  Zn3  1  0.25000000  0.00000000  0.11886000  1.0
  Zn  Zn4  1  0.25091000  0.00124000  0.96186000  1.0
  Zn  Zn5  1  0.50000000  0.48384000  0.87388000  1.0
  Zn  Zn6  1  0.00000000  0.53134000  0.84738000  1.0
  Zn  Zn7  1  0.74909000  0.00124000  0.96186000  1.0
  Ni  Ni8  1  0.75000000  0.25000000  0.03962000  1.0
  Ni  Ni9  1  0.25000000  0.75000000  0.03962000  1.0
  Ni  Ni10  1  0.75000000  0.75000000  0.03962000  1.0
  Ni  Ni11  1  0.25000000  0.25000000  0.03962000  1.0
  Ni  Ni12  1  0.50000000  0.75000000  0.11886000  1.0
  Ni  Ni13  1  0.00000000  0.25000000  0.11886000  1.0
  Ni  Ni14  1  0.50000000  0.25000000  0.11886000  1.0
  Ni  Ni15  1  0.00000000  0.75000000  0.11886000  1.0
  Ni  Ni16  1  0.23469000  0.26044000  0.88837000  1.0
  Ni  Ni17  1  0.73419000  0.74888000  0.88785000  1.0
  Ni  Ni18  1  0.26581000  0.74888000  0.88785000  1.0
  Ni  Ni19  1  0.76531000  0.26044000  0.88837000  1.0
  Ni  Ni20  1  0.00000000  0.75245000  0.96313000  1.0
  Ni  Ni21  1  0.50000000  0.25263000  0.95949000  1.0
  Ni  Ni22  1  0.00000000  0.25644000  0.95820000  1.0
  Ni  Ni23  1  0.50000000  0.74859000  0.96001000  1.0
  Ge  Ge24  1  0.50000000  1.00000000  0.03962000  1.0
  Ge  Ge25  1  0.75000000  0.50000000  0.11886000  1.0
  Ge  Ge26  1  0.00000000  1.00000000  0.03962000  1.0
  Ge  Ge27  1  0.25000000  0.50000000  0.11886000  1.0
  Ge  Ge28  1  0.00000000  0.91580000  0.87589000  1.0
  Ge  Ge29  1  0.25002000  0.50481000  0.96171000  1.0
  Ge  Ge30  1  0.50000000  0.01004000  0.87706000  1.0
  Ge  Ge31  1  0.74998000  0.50481000  0.96171000  1.0
  C  C32  1  0.00000000  0.23898000  0.88194000  1.0
