# generated using pymatgen
data_Mg8In8Ni16C
_symmetry_space_group_name_H-M   'P 1'
_cell_length_a   6.23499000
_cell_length_b   8.81761000
_cell_length_c   26.61320000
_cell_angle_alpha   90.00000000
_cell_angle_beta   90.00000000
_cell_angle_gamma   90.00000000
_symmetry_Int_Tables_number   1
_chemical_formula_structural   Mg8In8Ni16C
_chemical_formula_sum   'Mg8 In8 Ni16 C1'
_cell_volume   1463.13279640
_cell_formula_units_Z   1
loop_
 _symmetry_equiv_pos_site_id
 _symmetry_equiv_pos_as_xyz
  1  'x, y, z'
loop_
 _atom_site_type_symbol
 _atom_site_label
 _atom_site_symmetry_multiplicity
 _atom_site_fract_x
 _atom_site_fract_y
 _atom_site_fract_z
 _atom_site_occupancy
  Mg  Mg0  1  0.00000000  0.00000000  0.87575000  1.0
  Mg  Mg1  1  0.50000000  0.25000000  0.95858000  1.0
  Mg  Mg2  1  0.50000000  0.75000000  0.95858000  1.0
  Mg  Mg3  1  0.00000000  0.50000000  0.87575000  1.0
  Mg  Mg4  1  0.99815000  0.50450000  0.03826000  1.0
  Mg  Mg5  1  0.50633000  0.75135000  0.12824000  1.0
  Mg  Mg6  1  0.53051000  0.24984000  0.12843000  1.0
  Mg  Mg7  1  0.99812000  0.99588000  0.03826000  1.0
  In  In8  1  0.00000000  0.75000000  0.95858000  1.0
  In  In9  1  0.50000000  0.00000000  0.87575000  1.0
  In  In10  1  0.00000000  0.25000000  0.95858000  1.0
  In  In11  1  0.50000000  0.50000000  0.87575000  1.0
  In  In12  1  0.92876000  0.25019000  0.17175000  1.0
  In  In13  1  0.50113000  0.50031000  0.04323000  1.0
  In  In14  1  0.01708000  0.75029000  0.13018000  1.0
  In  In15  1  0.50131000  0.00020000  0.04304000  1.0
  Ni  Ni16  1  0.25000000  0.00000000  0.95858000  1.0
  Ni  Ni17  1  0.75000000  0.50000000  0.95858000  1.0
  Ni  Ni18  1  0.75000000  0.00000000  0.95858000  1.0
  Ni  Ni19  1  0.25000000  0.50000000  0.95858000  1.0
  Ni  Ni20  1  0.75000000  0.75000000  0.87575000  1.0
  Ni  Ni21  1  0.25000000  0.25000000  0.87575000  1.0
  Ni  Ni22  1  0.25000000  0.75000000  0.87575000  1.0
  Ni  Ni23  1  0.75000000  0.25000000  0.87575000  1.0
  Ni  Ni24  1  0.19989000  0.45592000  0.11934000  1.0
  Ni  Ni25  1  0.77733000  0.99916000  0.11953000  1.0
  Ni  Ni26  1  0.77812000  0.50166000  0.11954000  1.0
  Ni  Ni27  1  0.20092000  0.04286000  0.11936000  1.0
  Ni  Ni28  1  0.76105000  0.25042000  0.04240000  1.0
  Ni  Ni29  1  0.25357000  0.75024000  0.04169000  1.0
  Ni  Ni30  1  0.23816000  0.25033000  0.04279000  1.0
  Ni  Ni31  1  0.74972000  0.75020000  0.04452000  1.0
  C  C32  1  0.19437000  0.24936000  0.11131000  1.0
