# generated using pymatgen
data_Li4Mn4Al4Pd4CO
_symmetry_space_group_name_H-M   'P 1'
_cell_length_a   6.10222000
_cell_length_b   6.10222000
_cell_length_c   24.57670000
_cell_angle_alpha   90.00000000
_cell_angle_beta   90.00000000
_cell_angle_gamma   90.00000000
_symmetry_Int_Tables_number   1
_chemical_formula_structural   Li4Mn4Al4Pd4CO
_chemical_formula_sum   'Li4 Mn4 Al4 Pd4 C1 O1'
_cell_volume   915.16476347
_cell_formula_units_Z   1
loop_
 _symmetry_equiv_pos_site_id
 _symmetry_equiv_pos_as_xyz
  1  'x, y, z'
loop_
 _atom_site_type_symbol
 _atom_site_label
 _atom_site_symmetry_multiplicity
 _atom_site_fract_x
 _atom_site_fract_y
 _atom_site_fract_z
 _atom_site_occupancy
  Li  Li0  1  0.50000000  0.99999000  0.09311000  1
  Li  Li1  1  0.00265500  0.99734500  0.96905000  1
  Li  Li2  1  0.49747500  0.50252500  0.96943000  1
  Li  Li3  1  0.00001000  0.50000000  0.09311000  1
  Mn  Mn4  1  0.25000500  0.74999500  0.03104000  1
  Mn  Mn5  1  0.74938000  0.74930000  0.90234000  1
  Mn  Mn6  1  0.25070000  0.25062000  0.90234000  1
  Mn  Mn7  1  0.75000500  0.24999500  0.03104000  1
  Al  Al8  1  0.00000500  0.99999500  0.09311000  1
  Al  Al9  1  0.49672000  0.99664000  0.96993000  1
  Al  Al10  1  0.00336000  0.50328000  0.96993000  1
  Al  Al11  1  0.50000500  0.49999500  0.09311000  1
  Pd  Pd12  1  0.25000000  0.24999000  0.03104000  1
  Pd  Pd13  1  0.74947500  0.25052500  0.91526000  1
  Pd  Pd14  1  0.25029500  0.74970500  0.90682000  1
  Pd  Pd15  1  0.75001000  0.75000000  0.03104000  1
  C  C16  1  0.24936000  0.75064000  0.82684000  1
  O  O17  1  0.24940000  0.75060000  0.77985000  1
