# generated using pymatgen
data_Li4Mn4Al4Pd4CO
_symmetry_space_group_name_H-M   Cm
_cell_length_a   8.62984228
_cell_length_b   8.62984228
_cell_length_c   24.57670000
_cell_angle_alpha   90.00000000
_cell_angle_beta   90.00000000
_cell_angle_gamma   90.00000000
_symmetry_Int_Tables_number   8
_chemical_formula_structural   Li4Mn4Al4Pd4CO
_chemical_formula_sum   'Li8 Mn8 Al8 Pd8 C2 O2'
_cell_volume   1830.32952693
_cell_formula_units_Z   2
loop_
 _symmetry_equiv_pos_site_id
 _symmetry_equiv_pos_as_xyz
  1  'x, y, z'
  2  'x, -y, z'
  3  'x+1/2, y+1/2, z'
  4  'x+1/2, -y+1/2, z'
loop_
 _atom_site_type_symbol
 _atom_site_label
 _atom_site_symmetry_multiplicity
 _atom_site_fract_x
 _atom_site_fract_y
 _atom_site_fract_z
 _atom_site_occupancy
  Li  Li0  4  0.25000500  0.24999500  0.90689000  1.0
  Li  Li1  2  0.00265500  0.00000000  0.03095000  1.0
  Li  Li2  2  0.49747500  0.00000000  0.03057000  1.0
  Mn  Mn3  4  0.00004000  0.25066000  0.09766000  1.0
  Mn  Mn4  2  0.25000500  0.00000000  0.96896000  1.0
  Mn  Mn5  2  0.25000500  0.50000000  0.96896000  1.0
  Al  Al6  4  0.25004000  0.24668000  0.03007000  1.0
  Al  Al7  2  0.00000500  0.00000000  0.90689000  1.0
  Al  Al8  2  0.00000500  0.50000000  0.90689000  1.0
  Pd  Pd9  4  0.00000500  0.24999500  0.96896000  1.0
  Pd  Pd10  2  0.24947500  0.50000000  0.08474000  1.0
  Pd  Pd11  2  0.25029500  0.00000000  0.09318000  1.0
  C  C12  2  0.24936000  0.00000000  0.17316000  1.0
  O  O13  2  0.24940000  0.00000000  0.22015000  1.0
