data_image0
_chemical_formula_structural       Cr8Ga8Co16CO
_chemical_formula_sum              "Cr8 Ga8 Co16 C1 O1"
_cell_length_a       5.73361
_cell_length_b       8.10855
_cell_length_c       26.0814
_cell_angle_alpha    90
_cell_angle_beta     90
_cell_angle_gamma    90

_space_group_name_H-M_alt    "P 1"
_space_group_IT_number       1

loop_
  _space_group_symop_operation_xyz
  'x, y, z'

loop_
  _atom_site_type_symbol
  _atom_site_label
  _atom_site_symmetry_multiplicity
  _atom_site_fract_x
  _atom_site_fract_y
  _atom_site_fract_z
  _atom_site_occupancy
  Cr  Cr1       1.0  0.00000  0.00000  0.88341  1.0000
  Cr  Cr2       1.0  0.50000  0.25000  0.96114  1.0000
  Cr  Cr3       1.0  0.50000  0.75000  0.96114  1.0000
  Cr  Cr4       1.0  0.00000  0.50000  0.88341  1.0000
  Cr  Cr5       1.0  0.00000  0.50106  0.04047  1.0000
  Cr  Cr6       1.0  0.50000  0.74999  0.11903  1.0000
  Cr  Cr7       1.0  0.50000  0.25001  0.11502  1.0000
  Cr  Cr8       1.0  1.00000  0.99894  0.04047  1.0000
  Ga  Ga1       1.0  0.00000  0.75000  0.96114  1.0000
  Ga  Ga2       1.0  0.50000  0.00000  0.88341  1.0000
  Ga  Ga3       1.0  0.00000  0.25000  0.96114  1.0000
  Ga  Ga4       1.0  0.50000  0.50000  0.88341  1.0000
  Ga  Ga5       1.0  0.00000  0.24998  0.12165  1.0000
  Ga  Ga6       1.0  0.50000  0.49877  0.03743  1.0000
  Ga  Ga7       1.0  0.00000  0.75002  0.12139  1.0000
  Ga  Ga8       1.0  0.50000  0.00123  0.03744  1.0000
  Co  Co1       1.0  0.25000  0.00000  0.96114  1.0000
  Co  Co2       1.0  0.75000  0.50000  0.96114  1.0000
  Co  Co3       1.0  0.75000  0.00000  0.96114  1.0000
  Co  Co4       1.0  0.25000  0.50000  0.96114  1.0000
  Co  Co5       1.0  0.75000  0.75000  0.88341  1.0000
  Co  Co6       1.0  0.25000  0.25000  0.88341  1.0000
  Co  Co7       1.0  0.25000  0.75000  0.88341  1.0000
  Co  Co8       1.0  0.75000  0.25000  0.88341  1.0000
  Co  Co9       1.0  0.25255  0.49506  0.11385  1.0000
  Co  Co10      1.0  0.74741  0.00495  0.11386  1.0000
  Co  Co11      1.0  0.74745  0.49506  0.11385  1.0000
  Co  Co12      1.0  0.25259  0.00495  0.11386  1.0000
  Co  Co13      1.0  0.75288  0.25001  0.03904  1.0000
  Co  Co14      1.0  0.25045  0.74999  0.03992  1.0000
  Co  Co15      1.0  0.24712  0.25001  0.03904  1.0000
  Co  Co16      1.0  0.74955  0.74999  0.03992  1.0000
  C   C1        1.0  0.50000  0.24999  0.18736  1.0000
  O   O1        1.0  0.50000  0.24999  0.23186  1.0000
