# generated using pymatgen
data_K4Na8Sb4C
_symmetry_space_group_name_H-M   Cm
_cell_length_a   11.09046075
_cell_length_b   11.09046075
_cell_length_c   25.88160000
_cell_angle_alpha   90.00000000
_cell_angle_beta   90.00000000
_cell_angle_gamma   90.00000000
_symmetry_Int_Tables_number   8
_chemical_formula_structural   K4Na8Sb4C
_chemical_formula_sum   'K8 Na16 Sb8 C2'
_cell_volume   3183.39330750
_cell_formula_units_Z   2
loop_
 _symmetry_equiv_pos_site_id
 _symmetry_equiv_pos_as_xyz
  1  'x, y, z'
  2  'x, -y, z'
  3  'x+1/2, y+1/2, z'
  4  'x+1/2, -y+1/2, z'
loop_
 _atom_site_type_symbol
 _atom_site_label
 _atom_site_symmetry_multiplicity
 _atom_site_fract_x
 _atom_site_fract_y
 _atom_site_fract_z
 _atom_site_occupancy
  K  K0  4  0.25000000  0.25000000  0.96212000  1.0
  K  K1  2  0.00983000  0.50000000  0.15704000  1.0
  K  K2  2  0.49020000  0.50000000  0.15704000  1.0
  Na  Na3  4  0.00000000  0.25000000  0.88637000  1.0
  Na  Na4  4  0.49994500  0.24998500  0.04931000  1.0
  Na  Na5  2  0.24999000  0.00000000  0.03137000  1.0
  Na  Na6  2  0.25000000  0.00000000  0.88637000  1.0
  Na  Na7  2  0.25000000  0.50000000  0.88637000  1.0
  Na  Na8  2  0.25000500  0.50000000  0.04260000  1.0
  Sb  Sb9  4  0.25000500  0.18695500  0.12467000  1.0
  Sb  Sb10  2  0.00000000  0.00000000  0.96212000  1.0
  Sb  Sb11  2  0.00000000  0.50000000  0.96212000  1.0
  C  C12  2  0.25002000  0.00000000  0.13013000  1.0
