# generated using pymatgen
data_Li8Ca8Ge8Pd8C
_symmetry_space_group_name_H-M   Pm
_cell_length_a   6.62107000
_cell_length_b   9.36360000
_cell_length_c   27.02270000
_cell_angle_alpha   90.00000000
_cell_angle_beta   90.00000000
_cell_angle_gamma   90.00000000
_symmetry_Int_Tables_number   6
_chemical_formula_structural   Li8Ca8Ge8Pd8C
_chemical_formula_sum   'Li8 Ca8 Ge8 Pd8 C1'
_cell_volume   1675.32771146
_cell_formula_units_Z   1
loop_
 _symmetry_equiv_pos_site_id
 _symmetry_equiv_pos_as_xyz
  1  'x, y, z'
  2  'x, -y, z'
loop_
 _atom_site_type_symbol
 _atom_site_label
 _atom_site_symmetry_multiplicity
 _atom_site_fract_x
 _atom_site_fract_y
 _atom_site_fract_z
 _atom_site_occupancy
  Li  Li0  2  0.75000000  0.25001000  0.95669000  1.0
  Li  Li1  2  0.89666000  0.22454000  0.16664000  1.0
  Li  Li2  1  0.25000000  0.00000000  0.87006000  1.0
  Li  Li3  1  0.25000000  0.50000000  0.87006000  1.0
  Li  Li4  1  0.25045000  0.50000000  0.04699000  1.0
  Li  Li5  1  0.31489000  0.00000000  0.05590000  1.0
  Ca  Ca6  2  0.00000000  0.25001000  0.87006000  1.0
  Ca  Ca7  2  0.97470000  0.23471000  0.04540000  1.0
  Ca  Ca8  1  0.46964000  0.00000000  0.16994000  1.0
  Ca  Ca9  1  0.50000000  0.00000000  0.95669000  1.0
  Ca  Ca10  1  0.50000000  0.50000000  0.95669000  1.0
  Ca  Ca11  1  0.54226000  0.50000000  0.13469000  1.0
  Ge  Ge12  2  0.49984000  0.25340000  0.04253000  1.0
  Ge  Ge13  2  0.50000000  0.24999000  0.87006000  1.0
  Ge  Ge14  1  0.00000000  0.00000000  0.95669000  1.0
  Ge  Ge15  1  0.00000000  0.50000000  0.95669000  1.0
  Ge  Ge16  1  0.03180000  0.50000000  0.13217000  1.0
  Ge  Ge17  1  0.07062000  0.00000000  0.12700000  1.0
  Pd  Pd18  2  0.25000000  0.25001000  0.95669000  1.0
  Pd  Pd19  2  0.25845000  0.26183000  0.11993000  1.0
  Pd  Pd20  1  0.69721000  0.00000000  0.07670000  1.0
  Pd  Pd21  1  0.74555000  0.50000000  0.04074000  1.0
  Pd  Pd22  1  0.75000000  0.00000000  0.87006000  1.0
  Pd  Pd23  1  0.75000000  0.50000000  0.87006000  1.0
  C  C24  1  0.81208000  0.00000000  0.15463000  1.0
