# generated using pymatgen
data_Li8Al16Pd8C
_symmetry_space_group_name_H-M   'P 1'
_cell_length_a   6.12388000
_cell_length_b   8.66047000
_cell_length_c   26.49540000
_cell_angle_alpha   90.00000000
_cell_angle_beta   90.00000000
_cell_angle_gamma   90.00000000
_symmetry_Int_Tables_number   1
_chemical_formula_structural   Li8Al16Pd8C
_chemical_formula_sum   'Li8 Al16 Pd8 C1'
_cell_volume   1405.20153000
_cell_formula_units_Z   1
loop_
 _symmetry_equiv_pos_site_id
 _symmetry_equiv_pos_as_xyz
  1  'x, y, z'
loop_
 _atom_site_type_symbol
 _atom_site_label
 _atom_site_symmetry_multiplicity
 _atom_site_fract_x
 _atom_site_fract_y
 _atom_site_fract_z
 _atom_site_occupancy
  Li  Li0  1  0.00000000  0.00000000  0.87742000  1.0
  Li  Li1  1  0.50000000  0.25000000  0.95914000  1.0
  Li  Li2  1  0.50000000  0.75000000  0.95914000  1.0
  Li  Li3  1  0.00000000  0.50000000  0.87742000  1.0
  Li  Li4  1  0.00000000  0.50000000  0.03905000  1.0
  Li  Li5  1  0.50000000  0.72417000  0.16297000  1.0
  Li  Li6  1  0.50000000  0.27583000  0.16297000  1.0
  Li  Li7  1  0.00000000  0.00000000  0.04616000  1.0
  Al  Al8  1  0.25000000  0.00000000  0.95914000  1.0
  Al  Al9  1  0.75000000  0.50000000  0.95914000  1.0
  Al  Al10  1  0.75000000  0.00000000  0.95914000  1.0
  Al  Al11  1  0.25000000  0.50000000  0.95914000  1.0
  Al  Al12  1  0.75000000  0.75000000  0.87742000  1.0
  Al  Al13  1  0.25000000  0.25000000  0.87742000  1.0
  Al  Al14  1  0.25000000  0.75000000  0.87742000  1.0
  Al  Al15  1  0.75000000  0.25000000  0.87742000  1.0
  Al  Al16  1  0.24249000  0.50000000  0.12005000  1.0
  Al  Al17  1  0.70426000  0.00000000  0.12384000  1.0
  Al  Al18  1  0.75751000  0.50000000  0.12005000  1.0
  Al  Al19  1  0.29574000  0.00000000  0.12384000  1.0
  Al  Al20  1  0.73748000  0.25306000  0.04362000  1.0
  Al  Al21  1  0.26252000  0.74694000  0.04362000  1.0
  Al  Al22  1  0.26252000  0.25306000  0.04362000  1.0
  Al  Al23  1  0.73748000  0.74694000  0.04362000  1.0
  Pd  Pd24  1  0.00000000  0.75000000  0.95914000  1.0
  Pd  Pd25  1  0.50000000  0.00000000  0.87742000  1.0
  Pd  Pd26  1  0.00000000  0.25000000  0.95914000  1.0
  Pd  Pd27  1  0.50000000  0.50000000  0.87742000  1.0
  Pd  Pd28  1  0.00000000  0.24565000  0.11831000  1.0
  Pd  Pd29  1  0.50000000  0.50000000  0.03636000  1.0
  Pd  Pd30  1  0.00000000  0.75435000  0.11831000  1.0
  Pd  Pd31  1  0.50000000  0.00000000  0.03606000  1.0
  C  C32  1  0.00000000  0.00000000  0.14463000  1.0
