# generated using pymatgen
data_Y8In8Cu8Sn8C
_symmetry_space_group_name_H-M   Pmm2
_cell_length_a   8.84740000
_cell_length_b   9.14612000
_cell_length_c   26.62140000
_cell_angle_alpha   90.00000000
_cell_angle_beta   90.00000000
_cell_angle_gamma   90.00000000
_symmetry_Int_Tables_number   25
_chemical_formula_structural   Y8In8Cu8Sn8C
_chemical_formula_sum   'Y8 In8 Cu8 Sn8 C1'
_cell_volume   2154.18723832
_cell_formula_units_Z   1
loop_
 _symmetry_equiv_pos_site_id
 _symmetry_equiv_pos_as_xyz
  1  'x, y, z'
  2  '-x, -y, z'
  3  '-x, y, z'
  4  'x, -y, z'
loop_
 _atom_site_type_symbol
 _atom_site_label
 _atom_site_symmetry_multiplicity
 _atom_site_fract_x
 _atom_site_fract_y
 _atom_site_fract_z
 _atom_site_occupancy
  Y  Y0  1  0.00000000  0.00000000  0.04081000  1.0
  Y  Y1  1  0.00000000  0.00000000  0.87564000  1.0
  Y  Y2  1  0.00000000  0.50000000  0.04362000  1.0
  Y  Y3  1  0.00000000  0.50000000  0.87564000  1.0
  Y  Y4  1  0.50000000  0.00000000  0.04850000  1.0
  Y  Y5  1  0.50000000  0.00000000  0.87564000  1.0
  Y  Y6  1  0.50000000  0.50000000  0.03965000  1.0
  Y  Y7  1  0.50000000  0.50000000  0.87564000  1.0
  In  In8  4  0.25000000  0.25000000  0.87564000  1.0
  In  In9  4  0.25075000  0.25073000  0.04960000  1.0
  Cu  Cu10  2  0.00000000  0.22900000  0.11718000  1.0
  Cu  Cu11  2  0.00000000  0.25000000  0.95855000  1.0
  Cu  Cu12  2  0.50000000  0.25000000  0.95855000  1.0
  Cu  Cu13  2  0.50000000  0.28429000  0.11634000  1.0
  Sn  Sn14  2  0.24595000  0.00000000  0.14150000  1.0
  Sn  Sn15  2  0.24680000  0.50000000  0.13485000  1.0
  Sn  Sn16  2  0.25000000  0.00000000  0.95855000  1.0
  Sn  Sn17  2  0.25000000  0.50000000  0.95855000  1.0
  C  C18  1  0.00000000  0.00000000  0.13049000  1.0
