data_image0
_chemical_formula_structural       Li8Al16Pt8C
_chemical_formula_sum              "Li8 Al16 Pt8 C1"
_cell_length_a       6.09904
_cell_length_b       8.62534
_cell_length_c       26.469
_cell_angle_alpha    90
_cell_angle_beta     90
_cell_angle_gamma    90

_space_group_name_H-M_alt    "P 1"
_space_group_IT_number       1

loop_
  _space_group_symop_operation_xyz
  'x, y, z'

loop_
  _atom_site_type_symbol
  _atom_site_label
  _atom_site_symmetry_multiplicity
  _atom_site_fract_x
  _atom_site_fract_y
  _atom_site_fract_z
  _atom_site_occupancy
  Li  Li1       1.0  0.00000  0.00000  0.87780  1.0000
  Li  Li2       1.0  0.50000  0.25000  0.95927  1.0000
  Li  Li3       1.0  0.50000  0.75000  0.95927  1.0000
  Li  Li4       1.0  0.00000  0.50000  0.87780  1.0000
  Li  Li5       1.0  0.00000  0.50000  0.04037  1.0000
  Li  Li6       1.0  0.50000  0.75974  0.15987  1.0000
  Li  Li7       1.0  0.50000  0.24026  0.15987  1.0000
  Li  Li8       1.0  0.00000  1.00000  0.03902  1.0000
  Al  Al1       1.0  0.25000  0.00000  0.95927  1.0000
  Al  Al2       1.0  0.75000  0.50000  0.95927  1.0000
  Al  Al3       1.0  0.75000  0.00000  0.95927  1.0000
  Al  Al4       1.0  0.25000  0.50000  0.95927  1.0000
  Al  Al5       1.0  0.75000  0.75000  0.87780  1.0000
  Al  Al6       1.0  0.25000  0.25000  0.87780  1.0000
  Al  Al7       1.0  0.25000  0.75000  0.87780  1.0000
  Al  Al8       1.0  0.75000  0.25000  0.87780  1.0000
  Al  Al9       1.0  0.26006  0.50000  0.12226  1.0000
  Al  Al10      1.0  0.78206  1.00000  0.12453  1.0000
  Al  Al11      1.0  0.73994  0.50000  0.12226  1.0000
  Al  Al12      1.0  0.21794  0.00000  0.12453  1.0000
  Al  Al13      1.0  0.73672  0.25128  0.04245  1.0000
  Al  Al14      1.0  0.26328  0.74872  0.04245  1.0000
  Al  Al15      1.0  0.26328  0.25128  0.04245  1.0000
  Al  Al16      1.0  0.73672  0.74872  0.04245  1.0000
  Pt  Pt1       1.0  0.00000  0.75000  0.95927  1.0000
  Pt  Pt2       1.0  0.50000  0.00000  0.87780  1.0000
  Pt  Pt3       1.0  0.00000  0.25000  0.95927  1.0000
  Pt  Pt4       1.0  0.50000  0.50000  0.87780  1.0000
  Pt  Pt5       1.0  1.00000  0.25867  0.11456  1.0000
  Pt  Pt6       1.0  0.50000  0.50000  0.03562  1.0000
  Pt  Pt7       1.0  0.00000  0.74134  0.11456  1.0000
  Pt  Pt8       1.0  0.50000  0.00000  0.03952  1.0000
  C   C1        1.0  0.50000  0.00000  0.15074  1.0000
