# generated using pymatgen
data_Cr4Rh12CO
_symmetry_space_group_name_H-M   'P 1'
_cell_length_a   5.39742000
_cell_length_b   7.63311000
_cell_length_c   24.04810000
_cell_angle_alpha   90.00000000
_cell_angle_beta   90.00000000
_cell_angle_gamma   90.00000000
_symmetry_Int_Tables_number   1
_chemical_formula_structural   Cr4Rh12CO
_chemical_formula_sum   'Cr4 Rh12 C1 O1'
_cell_volume   990.76009057
_cell_formula_units_Z   1
loop_
 _symmetry_equiv_pos_site_id
 _symmetry_equiv_pos_as_xyz
  1  'x, y, z'
loop_
 _atom_site_type_symbol
 _atom_site_label
 _atom_site_symmetry_multiplicity
 _atom_site_fract_x
 _atom_site_fract_y
 _atom_site_fract_z
 _atom_site_occupancy
  Cr  Cr0  1  0.00000000  0.00000000  0.91583000  1.0
  Cr  Cr1  1  0.50000000  0.00000000  0.02806000  1.0
  Cr  Cr2  1  0.00000000  0.50000000  0.91583000  1.0
  Cr  Cr3  1  0.50000000  0.50000000  0.02806000  1.0
  Rh  Rh4  1  0.50000000  0.00000000  0.91583000  1.0
  Rh  Rh5  1  0.75000000  0.25000000  0.97194000  1.0
  Rh  Rh6  1  0.25000000  0.25000000  0.97194000  1.0
  Rh  Rh7  1  0.00000000  0.00000000  0.02806000  1.0
  Rh  Rh8  1  0.25000000  0.25000000  0.08417000  1.0
  Rh  Rh9  1  0.75000000  0.25000000  0.08417000  1.0
  Rh  Rh10  1  0.50000000  0.50000000  0.91583000  1.0
  Rh  Rh11  1  0.75000000  0.75000000  0.97194000  1.0
  Rh  Rh12  1  0.25000000  0.75000000  0.97194000  1.0
  Rh  Rh13  1  0.00000000  0.50000000  0.02806000  1.0
  Rh  Rh14  1  0.25000000  0.75000000  0.08417000  1.0
  Rh  Rh15  1  0.75000000  0.75000000  0.08417000  1.0
  C  C16  1  0.50000000  0.00000000  0.83683000  1.0
  O  O17  1  0.50000000  0.00000000  0.78900000  1.0
