# generated using pymatgen
data_Li4In4Pd4Rh4CO
_symmetry_space_group_name_H-M   'P 1'
_cell_length_a   6.29773000
_cell_length_b   6.29773000
_cell_length_c   24.72330000
_cell_angle_alpha   90.00000000
_cell_angle_beta   90.00000000
_cell_angle_gamma   90.00000000
_symmetry_Int_Tables_number   1
_chemical_formula_structural   Li4In4Pd4Rh4CO
_chemical_formula_sum   'Li4 In4 Pd4 Rh4 C1 O1'
_cell_volume   980.56076857
_cell_formula_units_Z   1
loop_
 _symmetry_equiv_pos_site_id
 _symmetry_equiv_pos_as_xyz
  1  'x, y, z'
loop_
 _atom_site_type_symbol
 _atom_site_label
 _atom_site_symmetry_multiplicity
 _atom_site_fract_x
 _atom_site_fract_y
 _atom_site_fract_z
 _atom_site_occupancy
  Li  Li0  1  0.99996000  0.50002000  0.09687000  1.0
  Li  Li1  1  0.00000000  0.00000000  0.96816000  1.0
  Li  Li2  1  0.50000000  0.50000000  0.96816000  1.0
  Li  Li3  1  0.49998000  0.00003000  0.09687000  1.0
  In  In4  1  0.99994000  0.00004000  0.09640000  1.0
  In  In5  1  0.00000000  0.50000000  0.96816000  1.0
  In  In6  1  0.50000000  0.00000000  0.96816000  1.0
  In  In7  1  0.49995000  0.50003000  0.09851000  1.0
  Pd  Pd8  1  0.74884000  0.25116000  0.03376000  1.0
  Pd  Pd9  1  0.75000000  0.75000000  0.90448000  1.0
  Pd  Pd10  1  0.25000000  0.25000000  0.90448000  1.0
  Pd  Pd11  1  0.25107000  0.74891000  0.03377000  1.0
  Rh  Rh12  1  0.25114000  0.25119000  0.03642000  1.0
  Rh  Rh13  1  0.25000000  0.75000000  0.90448000  1.0
  Rh  Rh14  1  0.75000000  0.25000000  0.90448000  1.0
  Rh  Rh15  1  0.74879000  0.74884000  0.03641000  1.0
  C  C16  1  0.00111000  0.99928000  0.25669000  1.0
  O  O17  1  0.99985000  0.00009000  0.30260000  1.0
