# generated using pymatgen
data_Y8In8Pd8Pt8CO
_symmetry_space_group_name_H-M   'P 1'
_cell_length_a   9.65478000
_cell_length_b   6.82696000
_cell_length_c   27.24110000
_cell_angle_alpha   90.00000000
_cell_angle_beta   90.00000000
_cell_angle_gamma   90.00000000
_symmetry_Int_Tables_number   1
_chemical_formula_structural   Y8In8Pd8Pt8CO
_chemical_formula_sum   'Y8 In8 Pd8 Pt8 C1 O1'
_cell_volume   1795.53709078
_cell_formula_units_Z   1
loop_
 _symmetry_equiv_pos_site_id
 _symmetry_equiv_pos_as_xyz
  1  'x, y, z'
loop_
 _atom_site_type_symbol
 _atom_site_label
 _atom_site_symmetry_multiplicity
 _atom_site_fract_x
 _atom_site_fract_y
 _atom_site_fract_z
 _atom_site_occupancy
  Y  Y0  1  0.00000000  1.00000000  0.04430000  1.0
  Y  Y1  1  0.50000000  0.00000000  0.04430000  1.0
  Y  Y2  1  0.25003000  0.50000000  0.13291000  1.0
  Y  Y3  1  0.74997000  0.50000000  0.13291000  1.0
  Y  Y4  1  0.50000000  0.99850000  0.86661000  1.0
  Y  Y5  1  0.00000000  0.99998000  0.86507000  1.0
  Y  Y6  1  0.75122000  0.50289000  0.95585000  1.0
  Y  Y7  1  0.24878000  0.50289000  0.95585000  1.0
  In  In8  1  0.75003000  0.00000000  0.13291000  1.0
  In  In9  1  0.24997000  0.00000000  0.13291000  1.0
  In  In10  1  0.50000000  0.50000000  0.04430000  1.0
  In  In11  1  0.00000000  0.50000000  0.04430000  1.0
  In  In12  1  0.24911000  0.99894000  0.95357000  1.0
  In  In13  1  0.75089000  0.99894000  0.95357000  1.0
  In  In14  1  0.00000000  0.49540000  0.86455000  1.0
  In  In15  1  0.50000000  0.49406000  0.86203000  1.0
  Pd  Pd16  1  0.75003000  0.75000000  0.04430000  1.0
  Pd  Pd17  1  0.24997000  0.75000000  0.04430000  1.0
  Pd  Pd18  1  0.00000000  0.25000000  0.13291000  1.0
  Pd  Pd19  1  0.50000000  0.25000000  0.13291000  1.0
  Pd  Pd20  1  0.25038000  0.73050000  0.86894000  1.0
  Pd  Pd21  1  0.74962000  0.73050000  0.86894000  1.0
  Pd  Pd22  1  0.50000000  0.24728000  0.95405000  1.0
  Pd  Pd23  1  0.00000000  0.24320000  0.95336000  1.0
  Pt  Pt24  1  0.75003000  0.25000000  0.04430000  1.0
  Pt  Pt25  1  0.24997000  0.25000000  0.04430000  1.0
  Pt  Pt26  1  0.00000000  0.75000000  0.13291000  1.0
  Pt  Pt27  1  0.50000000  0.75000000  0.13291000  1.0
  Pt  Pt28  1  0.25149000  0.25864000  0.87212000  1.0
  Pt  Pt29  1  0.74851000  0.25864000  0.87212000  1.0
  Pt  Pt30  1  0.50000000  0.75965000  0.95394000  1.0
  Pt  Pt31  1  0.00000000  0.75924000  0.95272000  1.0
  C  C32  1  0.00000000  0.59101000  0.72511000  1.0
  O  O33  1  0.00000000  0.45780000  0.70010000  1.0
