# generated using pymatgen
data_Zr16Pt16C
_symmetry_space_group_name_H-M   P1
_cell_length_a   6.75388000
_cell_length_b   9.55143000
_cell_length_c   27.16360000
_cell_angle_alpha   90.00000000
_cell_angle_beta   90.00000000
_cell_angle_gamma   90.00000000
_symmetry_Int_Tables_number   1
_chemical_formula_structural   Zr16Pt16C
_chemical_formula_sum   'Zr16 Pt16 C1'
_cell_volume   1752.30243240
_cell_formula_units_Z   1
loop_
 _symmetry_equiv_pos_site_id
 _symmetry_equiv_pos_as_xyz
  1  'x, y, z'
loop_
 _atom_site_type_symbol
 _atom_site_label
 _atom_site_symmetry_multiplicity
 _atom_site_fract_x
 _atom_site_fract_y
 _atom_site_fract_z
 _atom_site_occupancy
  Zr  Zr0  1  0.24237000  0.98236000  0.13612000  1.0
  Zr  Zr1  1  0.24400000  0.21918000  0.04306000  1.0
  Zr  Zr2  1  0.25000000  0.00000000  0.95605000  1.0
  Zr  Zr3  1  0.25000000  0.25000000  0.86814000  1.0
  Zr  Zr4  1  0.25000000  0.50000000  0.95605000  1.0
  Zr  Zr5  1  0.25000000  0.75000000  0.86814000  1.0
  Zr  Zr6  1  0.25210000  0.48754000  0.13157000  1.0
  Zr  Zr7  1  0.25733000  0.73076000  0.04093000  1.0
  Zr  Zr8  1  0.74519000  0.72707000  0.04044000  1.0
  Zr  Zr9  1  0.74623000  0.48531000  0.12692000  1.0
  Zr  Zr10  1  0.75000000  0.00000000  0.95605000  1.0
  Zr  Zr11  1  0.75000000  0.25000000  0.86814000  1.0
  Zr  Zr12  1  0.75000000  0.50000000  0.95605000  1.0
  Zr  Zr13  1  0.75000000  0.75000000  0.86814000  1.0
  Zr  Zr14  1  0.75273000  0.22987000  0.04271000  1.0
  Zr  Zr15  1  0.75662000  0.98387000  0.13556000  1.0
  Pt  Pt16  1  0.00000000  0.00000000  0.86814000  1.0
  Pt  Pt17  1  0.00000000  0.25000000  0.95605000  1.0
  Pt  Pt18  1  0.00000000  0.50000000  0.86814000  1.0
  Pt  Pt19  1  0.00000000  0.75000000  0.95605000  1.0
  Pt  Pt20  1  0.00007000  0.72279000  0.11975000  1.0
  Pt  Pt21  1  0.00141000  0.25533000  0.12541000  1.0
  Pt  Pt22  1  0.02347000  0.47071000  0.04522000  1.0
  Pt  Pt23  1  0.47820000  0.46354000  0.04871000  1.0
  Pt  Pt24  1  0.49801000  0.22161000  0.12053000  1.0
  Pt  Pt25  1  0.50000000  0.00000000  0.86814000  1.0
  Pt  Pt26  1  0.50000000  0.25000000  0.95605000  1.0
  Pt  Pt27  1  0.50000000  0.50000000  0.86814000  1.0
  Pt  Pt28  1  0.50000000  0.75000000  0.95605000  1.0
  Pt  Pt29  1  0.50057000  0.73047000  0.12233000  1.0
  Pt  Pt30  1  0.50484000  0.98278000  0.04167000  1.0
  Pt  Pt31  1  0.99662000  0.96065000  0.04335000  1.0
  C  C32  1  0.00009000  0.08119000  0.16814000  1.0
