# generated using pymatgen
data_K3Sb
_symmetry_space_group_name_H-M   'P 1'
_cell_length_a   8.65338000
_cell_length_b   8.65338000
_cell_length_c   26.49000000
_cell_angle_alpha   90.00000000
_cell_angle_beta   90.00000000
_cell_angle_gamma   90.00000000
_symmetry_Int_Tables_number   1
_chemical_formula_structural   K3Sb
_chemical_formula_sum   'K12 Sb4'
_cell_volume   1983.59730389
_cell_formula_units_Z   4
loop_
 _symmetry_equiv_pos_site_id
 _symmetry_equiv_pos_as_xyz
  1  'x, y, z'
loop_
 _atom_site_type_symbol
 _atom_site_label
 _atom_site_symmetry_multiplicity
 _atom_site_fract_x
 _atom_site_fract_y
 _atom_site_fract_z
 _atom_site_occupancy
  K  K0  1  0.24998000  0.25005000  0.95260000  1.0
  K  K1  1  0.74999000  0.75000000  0.12250000  1.0
  K  K2  1  0.24998000  0.74995000  0.95260000  1.0
  K  K3  1  0.74999000  0.25000000  0.12250000  1.0
  K  K4  1  0.75002000  0.74995000  0.95260000  1.0
  K  K5  1  0.25001000  0.25000000  0.12250000  1.0
  K  K6  1  0.75002000  0.25005000  0.95260000  1.0
  K  K7  1  0.25001000  0.75000000  0.12250000  1.0
  K  K8  1  0.00000000  0.00000000  0.04083000  1.0
  K  K9  1  0.00000000  0.50008000  0.84396000  1.0
  K  K10  1  0.50000000  0.99994000  0.84406000  1.0
  K  K11  1  0.50000000  0.50000000  0.04083000  1.0
  Sb  Sb12  1  0.00000000  0.99998000  0.88725000  1.0
  Sb  Sb13  1  0.50000000  0.50002000  0.88724000  1.0
  Sb  Sb14  1  0.00000000  0.50000000  0.04083000  1.0
  Sb  Sb15  1  0.50000000  0.00000000  0.04083000  1.0
