# generated using pymatgen
data_K3Sb
_symmetry_space_group_name_H-M   Pm
_cell_length_a   8.65338000
_cell_length_b   8.65338000
_cell_length_c   26.49000000
_cell_angle_alpha   90.00000000
_cell_angle_beta   90.00000000
_cell_angle_gamma   90.00000000
_symmetry_Int_Tables_number   6
_chemical_formula_structural   K3Sb
_chemical_formula_sum   'K12 Sb4'
_cell_volume   1983.59730389
_cell_formula_units_Z   4
loop_
 _symmetry_equiv_pos_site_id
 _symmetry_equiv_pos_as_xyz
  1  'x, y, z'
  2  'x, -y, z'
loop_
 _atom_site_type_symbol
 _atom_site_label
 _atom_site_symmetry_multiplicity
 _atom_site_fract_x
 _atom_site_fract_y
 _atom_site_fract_z
 _atom_site_occupancy
  K  K0  2  0.25000000  0.25001000  0.87750000  1.0
  K  K1  2  0.25005000  0.24998000  0.04740000  1.0
  K  K2  2  0.74995000  0.24998000  0.04740000  1.0
  K  K3  2  0.75000000  0.25001000  0.87750000  1.0
  K  K4  1  0.00000000  0.00000000  0.95917000  1.0
  K  K5  1  0.50000000  0.50000000  0.95917000  1.0
  K  K6  1  0.50008000  0.00000000  0.15604000  1.0
  K  K7  1  0.99994000  0.50000000  0.15594000  1.0
  Sb  Sb8  1  0.00000000  0.50000000  0.95917000  1.0
  Sb  Sb9  1  0.50000000  0.00000000  0.95917000  1.0
  Sb  Sb10  1  0.50002000  0.50000000  0.11276000  1.0
  Sb  Sb11  1  0.99998000  0.00000000  0.11275000  1.0
