# generated using pymatgen
data_MgIn3
_symmetry_space_group_name_H-M   'P 1'
_cell_length_a   6.66280000
_cell_length_b   9.42262000
_cell_length_c   24.99710000
_cell_angle_alpha   90.00000000
_cell_angle_beta   90.00000000
_cell_angle_gamma   90.00000000
_symmetry_Int_Tables_number   1
_chemical_formula_structural   MgIn3
_chemical_formula_sum   'Mg4 In12'
_cell_volume   1569.34374841
_cell_formula_units_Z   4
loop_
 _symmetry_equiv_pos_site_id
 _symmetry_equiv_pos_as_xyz
  1  'x, y, z'
loop_
 _atom_site_type_symbol
 _atom_site_label
 _atom_site_symmetry_multiplicity
 _atom_site_fract_x
 _atom_site_fract_y
 _atom_site_fract_z
 _atom_site_occupancy
  Mg  Mg0  1  0.00000000  0.75000000  0.90005000  1.0
  Mg  Mg1  1  0.50013000  0.75000000  0.03391000  1.0
  Mg  Mg2  1  0.00000000  0.25000000  0.90005000  1.0
  Mg  Mg3  1  0.49987000  0.25000000  0.03391000  1.0
  In  In4  1  0.50000000  0.75000000  0.90005000  1.0
  In  In5  1  0.75000000  0.00000000  0.96668000  1.0
  In  In6  1  0.25000000  0.00000000  0.96668000  1.0
  In  In7  1  0.00012000  0.75000000  0.03848000  1.0
  In  In8  1  0.25685000  0.99995000  0.10449000  1.0
  In  In9  1  0.74315000  0.00005000  0.10449000  1.0
  In  In10  1  0.50000000  0.25000000  0.90005000  1.0
  In  In11  1  0.75000000  0.50000000  0.96668000  1.0
  In  In12  1  0.25000000  0.50000000  0.96668000  1.0
  In  In13  1  0.99988000  0.25000000  0.03848000  1.0
  In  In14  1  0.25685000  0.50005000  0.10449000  1.0
  In  In15  1  0.74315000  0.49995000  0.10449000  1.0
