# generated using pymatgen
data_MgIn3
_symmetry_space_group_name_H-M   Pma2
_cell_length_a   9.42262000
_cell_length_b   6.66280000
_cell_length_c   24.99710000
_cell_angle_alpha   90.00000000
_cell_angle_beta   90.00000000
_cell_angle_gamma   90.00000000
_symmetry_Int_Tables_number   28
_chemical_formula_structural   MgIn3
_chemical_formula_sum   'Mg4 In12'
_cell_volume   1569.34374841
_cell_formula_units_Z   4
loop_
 _symmetry_equiv_pos_site_id
 _symmetry_equiv_pos_as_xyz
  1  'x, y, z'
  2  '-x, -y, z'
  3  '-x+1/2, y, z'
  4  'x+1/2, -y, z'
loop_
 _atom_site_type_symbol
 _atom_site_label
 _atom_site_symmetry_multiplicity
 _atom_site_fract_x
 _atom_site_fract_y
 _atom_site_fract_z
 _atom_site_occupancy
  Mg  Mg0  2  0.25000000  0.00000000  0.90005000  1.0
  Mg  Mg1  2  0.25000000  0.49987000  0.03391000  1.0
  In  In2  4  0.00000000  0.25000000  0.96668000  1.0
  In  In3  4  0.00005000  0.74315000  0.10449000  1.0
  In  In4  2  0.25000000  0.50000000  0.90005000  1.0
  In  In5  2  0.25000000  0.99988000  0.03848000  1.0
