# generated using pymatgen
data_Li8Mg8In8Cu8CO
_symmetry_space_group_name_H-M   'P 1'
_cell_length_a   9.10482000
_cell_length_b   6.43808000
_cell_length_c   26.82860000
_cell_angle_alpha   90.00000000
_cell_angle_beta   90.00000000
_cell_angle_gamma   90.00000000
_symmetry_Int_Tables_number   1
_chemical_formula_structural   Li8Mg8In8Cu8CO
_chemical_formula_sum   'Li8 Mg8 In8 Cu8 C1 O1'
_cell_volume   1572.62705803
_cell_formula_units_Z   1
loop_
 _symmetry_equiv_pos_site_id
 _symmetry_equiv_pos_as_xyz
  1  'x, y, z'
loop_
 _atom_site_type_symbol
 _atom_site_label
 _atom_site_symmetry_multiplicity
 _atom_site_fract_x
 _atom_site_fract_y
 _atom_site_fract_z
 _atom_site_occupancy
  Li  Li0  1  0.25000000  0.00000000  0.04242000  1.0
  Li  Li1  1  0.75000000  0.00000000  0.04242000  1.0
  Li  Li2  1  0.50000000  0.50000000  0.12726000  1.0
  Li  Li3  1  0.00000000  0.50000000  0.12726000  1.0
  Li  Li4  1  0.75014000  0.02555000  0.84671000  1.0
  Li  Li5  1  0.24986000  0.02555000  0.84671000  1.0
  Li  Li6  1  0.00000000  0.49934000  0.95526000  1.0
  Li  Li7  1  0.50000000  0.49850000  0.95459000  1.0
  Mg  Mg8  1  0.00000000  0.75000000  0.04242000  1.0
  Mg  Mg9  1  0.50000000  0.75000000  0.04242000  1.0
  Mg  Mg10  1  0.25000000  0.25000000  0.12726000  1.0
  Mg  Mg11  1  0.75000000  0.25000000  0.12726000  1.0
  Mg  Mg12  1  0.50000000  0.74716000  0.86640000  1.0
  Mg  Mg13  1  0.00000000  0.74415000  0.86921000  1.0
  Mg  Mg14  1  0.75000000  0.24046000  0.95305000  1.0
  Mg  Mg15  1  0.25000000  0.24046000  0.95305000  1.0
  In  In16  1  0.00000000  0.25000000  0.04242000  1.0
  In  In17  1  0.50000000  0.25000000  0.04242000  1.0
  In  In18  1  0.25000000  0.75000000  0.12726000  1.0
  In  In19  1  0.75000000  0.75000000  0.12726000  1.0
  In  In20  1  0.50000000  0.25040000  0.86396000  1.0
  In  In21  1  0.00000000  0.25526000  0.86527000  1.0
  In  In22  1  0.74928000  0.75863000  0.95163000  1.0
  In  In23  1  0.25072000  0.75863000  0.95163000  1.0
  Cu  Cu24  1  0.00000000  0.00000000  0.12726000  1.0
  Cu  Cu25  1  0.50000000  0.00000000  0.12726000  1.0
  Cu  Cu26  1  0.75000000  0.50000000  0.04242000  1.0
  Cu  Cu27  1  0.25000000  0.50000000  0.04242000  1.0
  Cu  Cu28  1  0.50000000  0.00180000  0.95833000  1.0
  Cu  Cu29  1  0.00000000  0.00233000  0.95687000  1.0
  Cu  Cu30  1  0.25222000  0.49009000  0.87434000  1.0
  Cu  Cu31  1  0.74778000  0.49009000  0.87434000  1.0
  C  C32  1  0.00000000  0.75567000  0.78692000  1.0
  O  O33  1  0.00000000  0.76129000  0.74405000  1.0
