# generated using pymatgen
data_Li8Mg8In8Cu8CO
_symmetry_space_group_name_H-M   Pm
_cell_length_a   6.43808000
_cell_length_b   9.10482000
_cell_length_c   26.82860000
_cell_angle_alpha   90.00000000
_cell_angle_beta   90.00000000
_cell_angle_gamma   90.00000000
_symmetry_Int_Tables_number   6
_chemical_formula_structural   Li8Mg8In8Cu8CO
_chemical_formula_sum   'Li8 Mg8 In8 Cu8 C1 O1'
_cell_volume   1572.62705803
_cell_formula_units_Z   1
loop_
 _symmetry_equiv_pos_site_id
 _symmetry_equiv_pos_as_xyz
  1  'x, y, z'
  2  'x, -y, z'
loop_
 _atom_site_type_symbol
 _atom_site_label
 _atom_site_symmetry_multiplicity
 _atom_site_fract_x
 _atom_site_fract_y
 _atom_site_fract_z
 _atom_site_occupancy
  Li  Li0  2  0.00000000  0.25000000  0.95758000  1.0
  Li  Li1  2  0.02555000  0.24986000  0.15329000  1.0
  Li  Li2  1  0.49850000  0.50000000  0.04541000  1.0
  Li  Li3  1  0.49934000  0.00000000  0.04474000  1.0
  Li  Li4  1  0.50000000  0.00000000  0.87274000  1.0
  Li  Li5  1  0.50000000  0.50000000  0.87274000  1.0
  Mg  Mg6  2  0.24046000  0.25000000  0.04695000  1.0
  Mg  Mg7  2  0.25000000  0.25000000  0.87274000  1.0
  Mg  Mg8  1  0.74415000  0.00000000  0.13079000  1.0
  Mg  Mg9  1  0.74716000  0.50000000  0.13360000  1.0
  Mg  Mg10  1  0.75000000  0.00000000  0.95758000  1.0
  Mg  Mg11  1  0.75000000  0.50000000  0.95758000  1.0
  In  In12  2  0.75000000  0.25000000  0.87274000  1.0
  In  In13  2  0.75863000  0.25072000  0.04837000  1.0
  In  In14  1  0.25000000  0.00000000  0.95758000  1.0
  In  In15  1  0.25000000  0.50000000  0.95758000  1.0
  In  In16  1  0.25040000  0.50000000  0.13604000  1.0
  In  In17  1  0.25526000  0.00000000  0.13473000  1.0
  Cu  Cu18  2  0.49009000  0.25222000  0.12566000  1.0
  Cu  Cu19  2  0.50000000  0.25000000  0.95758000  1.0
  Cu  Cu20  1  0.00000000  0.00000000  0.87274000  1.0
  Cu  Cu21  1  0.00000000  0.50000000  0.87274000  1.0
  Cu  Cu22  1  0.00180000  0.50000000  0.04167000  1.0
  Cu  Cu23  1  0.00233000  0.00000000  0.04313000  1.0
  C  C24  1  0.75567000  0.00000000  0.21308000  1.0
  O  O25  1  0.76129000  0.00000000  0.25595000  1.0
