# generated using pymatgen
data_Mn16Pt16CO
_symmetry_space_group_name_H-M   Pmm2
_cell_length_a   6.97516000
_cell_length_b   8.47295000
_cell_length_c   26.35470000
_cell_angle_alpha   90.00000000
_cell_angle_beta   90.00000000
_cell_angle_gamma   90.00000000
_symmetry_Int_Tables_number   25
_chemical_formula_structural   Mn16Pt16CO
_chemical_formula_sum   'Mn16 Pt16 C1 O1'
_cell_volume   1557.56756450
_cell_formula_units_Z   1
loop_
 _symmetry_equiv_pos_site_id
 _symmetry_equiv_pos_as_xyz
  1  'x, y, z'
  2  '-x, -y, z'
  3  '-x, y, z'
  4  'x, -y, z'
loop_
 _atom_site_type_symbol
 _atom_site_label
 _atom_site_symmetry_multiplicity
 _atom_site_fract_x
 _atom_site_fract_y
 _atom_site_fract_z
 _atom_site_occupancy
  Mn  Mn0  4  0.25000000  0.25000000  0.04019000  1.0
  Mn  Mn1  4  0.25000000  0.25000000  0.87944000  1.0
  Mn  Mn2  2  0.25000000  0.00000000  0.12056000  1.0
  Mn  Mn3  2  0.25000000  0.00000000  0.95981000  1.0
  Mn  Mn4  2  0.25000000  0.50000000  0.12056000  1.0
  Mn  Mn5  2  0.25000000  0.50000000  0.95981000  1.0
  Pt  Pt6  2  0.00000000  0.25000000  0.12056000  1.0
  Pt  Pt7  2  0.00000000  0.25000000  0.95981000  1.0
  Pt  Pt8  2  0.50000000  0.25000000  0.12056000  1.0
  Pt  Pt9  2  0.50000000  0.25000000  0.95981000  1.0
  Pt  Pt10  1  0.00000000  0.00000000  0.04019000  1.0
  Pt  Pt11  1  0.00000000  0.00000000  0.87944000  1.0
  Pt  Pt12  1  0.00000000  0.50000000  0.04019000  1.0
  Pt  Pt13  1  0.00000000  0.50000000  0.87944000  1.0
  Pt  Pt14  1  0.50000000  0.00000000  0.04019000  1.0
  Pt  Pt15  1  0.50000000  0.00000000  0.87944000  1.0
  Pt  Pt16  1  0.50000000  0.50000000  0.04019000  1.0
  Pt  Pt17  1  0.50000000  0.50000000  0.87944000  1.0
  C  C18  1  0.00000000  0.00000000  0.80735000  1.0
  O  O19  1  0.00000000  0.00000000  0.76371000  1.0
