# generated using pymatgen
data_TiFe2Sn
_symmetry_space_group_name_H-M   'P 1'
_cell_length_a   4.25801319
_cell_length_b   4.25801319
_cell_length_c   24.51630000
_cell_angle_alpha   90.00000000
_cell_angle_beta   90.00000000
_cell_angle_gamma   90.00000000
_symmetry_Int_Tables_number   1
_chemical_formula_structural   TiFe2Sn
_chemical_formula_sum   'Ti2 Fe4 Sn2'
_cell_volume   444.49709971
_cell_formula_units_Z   2
loop_
 _symmetry_equiv_pos_site_id
 _symmetry_equiv_pos_as_xyz
  1  'x, y, z'
loop_
 _atom_site_type_symbol
 _atom_site_label
 _atom_site_symmetry_multiplicity
 _atom_site_fract_x
 _atom_site_fract_y
 _atom_site_fract_z
 _atom_site_occupancy
  Ti  Ti0  1  0.00000000  0.00000000  0.09211000  1.0
  Ti  Ti1  1  0.50000000  0.50000000  0.96930000  1.0
  Fe  Fe2  1  0.50000000  0.00000000  0.03070000  1.0
  Fe  Fe3  1  0.50000000  0.00000000  0.90789000  1.0
  Fe  Fe4  1  0.00000000  0.50000000  0.03070000  1.0
  Fe  Fe5  1  0.00000000  0.50000000  0.90789000  1.0
  Sn  Sn6  1  0.00000000  0.00000000  0.96930000  1.0
  Sn  Sn7  1  0.50000000  0.50000000  0.09211000  1.0
