data_image0
_chemical_formula_structural       Zr4Pt12CO
_chemical_formula_sum              "Zr4 Pt12 C1 O1"
_cell_length_a       8.14544
_cell_length_b       5.7597
_cell_length_c       24.3198
_cell_angle_alpha    90
_cell_angle_beta     90
_cell_angle_gamma    90

_space_group_name_H-M_alt    "P 1"
_space_group_IT_number       1

loop_
  _space_group_symop_operation_xyz
  'x, y, z'

loop_
  _atom_site_type_symbol
  _atom_site_label
  _atom_site_symmetry_multiplicity
  _atom_site_fract_x
  _atom_site_fract_y
  _atom_site_fract_z
  _atom_site_occupancy
  Zr  Zr1       1.0  0.00000  0.00000  0.91119  1.0000
  Zr  Zr2       1.0  0.99586  0.50150  0.03315  1.0000
  Zr  Zr3       1.0  0.50000  0.00000  0.91119  1.0000
  Zr  Zr4       1.0  0.50414  0.50150  0.03315  1.0000
  Pt  Pt1       1.0  0.00000  0.50000  0.91119  1.0000
  Pt  Pt2       1.0  0.25000  0.75000  0.97040  1.0000
  Pt  Pt3       1.0  0.25000  0.25000  0.97040  1.0000
  Pt  Pt4       1.0  0.99956  0.00151  0.02300  1.0000
  Pt  Pt5       1.0  0.25000  0.22951  0.08675  1.0000
  Pt  Pt6       1.0  0.25000  0.72894  0.08429  1.0000
  Pt  Pt7       1.0  0.50000  0.50000  0.91119  1.0000
  Pt  Pt8       1.0  0.75000  0.75000  0.97040  1.0000
  Pt  Pt9       1.0  0.75000  0.25000  0.97040  1.0000
  Pt  Pt10      1.0  0.50044  0.00151  0.02300  1.0000
  Pt  Pt11      1.0  0.75000  0.26067  0.08618  1.0000
  Pt  Pt12      1.0  0.75000  0.74576  0.08574  1.0000
  C   C1        1.0  0.25000  0.24767  0.16412  1.0000
  O   O1        1.0  0.25000  0.26157  0.21139  1.0000
