# generated using pymatgen
data_Zr4Pt12CO
_symmetry_space_group_name_H-M   'P 1'
_cell_length_a   8.14544000
_cell_length_b   5.75970000
_cell_length_c   24.31980000
_cell_angle_alpha   90.00000000
_cell_angle_beta   90.00000000
_cell_angle_gamma   90.00000000
_symmetry_Int_Tables_number   1
_chemical_formula_structural   Zr4Pt12CO
_chemical_formula_sum   'Zr4 Pt12 C1 O1'
_cell_volume   1140.97048842
_cell_formula_units_Z   1
loop_
 _symmetry_equiv_pos_site_id
 _symmetry_equiv_pos_as_xyz
  1  'x, y, z'
loop_
 _atom_site_type_symbol
 _atom_site_label
 _atom_site_symmetry_multiplicity
 _atom_site_fract_x
 _atom_site_fract_y
 _atom_site_fract_z
 _atom_site_occupancy
  Zr  Zr0  1  0.75000000  0.00000000  0.91119000  1.0
  Zr  Zr1  1  0.75414000  0.49850000  0.03315000  1.0
  Zr  Zr2  1  0.25000000  0.00000000  0.91119000  1.0
  Zr  Zr3  1  0.24586000  0.49850000  0.03315000  1.0
  Pt  Pt4  1  0.75000000  0.50000000  0.91119000  1.0
  Pt  Pt5  1  0.50000000  0.25000000  0.97040000  1.0
  Pt  Pt6  1  0.50000000  0.75000000  0.97040000  1.0
  Pt  Pt7  1  0.75044000  0.99849000  0.02300000  1.0
  Pt  Pt8  1  0.50000000  0.77049000  0.08675000  1.0
  Pt  Pt9  1  0.50000000  0.27106000  0.08429000  1.0
  Pt  Pt10  1  0.25000000  0.50000000  0.91119000  1.0
  Pt  Pt11  1  0.00000000  0.25000000  0.97040000  1.0
  Pt  Pt12  1  0.00000000  0.75000000  0.97040000  1.0
  Pt  Pt13  1  0.24956000  0.99849000  0.02300000  1.0
  Pt  Pt14  1  0.00000000  0.73933000  0.08618000  1.0
  Pt  Pt15  1  0.00000000  0.25424000  0.08574000  1.0
  C  C16  1  0.50000000  0.75233000  0.16412000  1.0
  O  O17  1  0.50000000  0.73843000  0.21139000  1.0
