# generated using pymatgen
data_Zr4Pt12CO
_symmetry_space_group_name_H-M   Pm
_cell_length_a   5.75970000
_cell_length_b   8.14544000
_cell_length_c   24.31980000
_cell_angle_alpha   90.00000000
_cell_angle_beta   90.00000000
_cell_angle_gamma   90.00000000
_symmetry_Int_Tables_number   6
_chemical_formula_structural   Zr4Pt12CO
_chemical_formula_sum   'Zr4 Pt12 C1 O1'
_cell_volume   1140.97048842
_cell_formula_units_Z   1
loop_
 _symmetry_equiv_pos_site_id
 _symmetry_equiv_pos_as_xyz
  1  'x, y, z'
  2  'x, -y, z'
loop_
 _atom_site_type_symbol
 _atom_site_label
 _atom_site_symmetry_multiplicity
 _atom_site_fract_x
 _atom_site_fract_y
 _atom_site_fract_z
 _atom_site_occupancy
  Zr  Zr0  2  0.00000000  0.25000000  0.08881000  1.0
  Zr  Zr1  2  0.49850000  0.24586000  0.96685000  1.0
  Pt  Pt2  2  0.50000000  0.25000000  0.08881000  1.0
  Pt  Pt3  2  0.99849000  0.24956000  0.97700000  1.0
  Pt  Pt4  1  0.25000000  0.00000000  0.02960000  1.0
  Pt  Pt5  1  0.25000000  0.50000000  0.02960000  1.0
  Pt  Pt6  1  0.25424000  0.00000000  0.91426000  1.0
  Pt  Pt7  1  0.27106000  0.50000000  0.91571000  1.0
  Pt  Pt8  1  0.73933000  0.00000000  0.91382000  1.0
  Pt  Pt9  1  0.75000000  0.00000000  0.02960000  1.0
  Pt  Pt10  1  0.75000000  0.50000000  0.02960000  1.0
  Pt  Pt11  1  0.77049000  0.50000000  0.91325000  1.0
  C  C12  1  0.75233000  0.50000000  0.83588000  1.0
  O  O13  1  0.73843000  0.50000000  0.78861000  1.0
