data_image0
_chemical_formula_structural       Mn16Al8V8CO
_chemical_formula_sum              "Mn16 Al8 V8 C1 O1"
_cell_length_a       5.82937
_cell_length_b       8.24397
_cell_length_c       26.183
_cell_angle_alpha    90
_cell_angle_beta     90
_cell_angle_gamma    90

_space_group_name_H-M_alt    "P 1"
_space_group_IT_number       1

loop_
  _space_group_symop_operation_xyz
  'x, y, z'

loop_
  _atom_site_type_symbol
  _atom_site_label
  _atom_site_symmetry_multiplicity
  _atom_site_fract_x
  _atom_site_fract_y
  _atom_site_fract_z
  _atom_site_occupancy
  Mn  Mn1       1.0  0.25000  0.00000  0.96064  1.0000
  Mn  Mn2       1.0  0.75000  0.50000  0.96064  1.0000
  Mn  Mn3       1.0  0.75000  0.00000  0.96064  1.0000
  Mn  Mn4       1.0  0.25000  0.50000  0.96064  1.0000
  Mn  Mn5       1.0  0.75000  0.75000  0.88193  1.0000
  Mn  Mn6       1.0  0.25000  0.25000  0.88193  1.0000
  Mn  Mn7       1.0  0.25000  0.75000  0.88193  1.0000
  Mn  Mn8       1.0  0.75000  0.25000  0.88193  1.0000
  Mn  Mn9       1.0  0.24302  0.50115  0.12029  1.0000
  Mn  Mn10      1.0  0.75694  0.99886  0.12028  1.0000
  Mn  Mn11      1.0  0.75699  0.50115  0.12029  1.0000
  Mn  Mn12      1.0  0.24307  0.99886  0.12028  1.0000
  Mn  Mn13      1.0  0.74382  0.25001  0.04177  1.0000
  Mn  Mn14      1.0  0.25051  0.74999  0.03997  1.0000
  Mn  Mn15      1.0  0.25618  0.25001  0.04177  1.0000
  Mn  Mn16      1.0  0.74950  0.74999  0.03997  1.0000
  Al  Al1       1.0  0.00000  0.00000  0.88193  1.0000
  Al  Al2       1.0  0.50000  0.25000  0.96064  1.0000
  Al  Al3       1.0  0.50000  0.75000  0.96064  1.0000
  Al  Al4       1.0  0.00000  0.50000  0.88193  1.0000
  Al  Al5       1.0  0.00000  0.49905  0.03908  1.0000
  Al  Al6       1.0  0.50000  0.75000  0.12345  1.0000
  Al  Al7       1.0  0.50000  0.25000  0.12547  1.0000
  Al  Al8       1.0  0.00000  0.00095  0.03907  1.0000
  V   V1        1.0  0.00000  0.75000  0.96064  1.0000
  V   V2        1.0  0.50000  0.00000  0.88193  1.0000
  V   V3        1.0  0.00000  0.25000  0.96064  1.0000
  V   V4        1.0  0.50000  0.50000  0.88193  1.0000
  V   V5        1.0  0.00000  0.24998  0.11581  1.0000
  V   V6        1.0  0.49999  0.50164  0.04031  1.0000
  V   V7        1.0  0.00000  0.75002  0.11397  1.0000
  V   V8        1.0  0.50000  0.99836  0.04030  1.0000
  C   C1        1.0  0.49996  0.25009  0.20201  1.0000
  O   O1        1.0  0.49997  0.25004  0.24605  1.0000
