# generated using pymatgen
data_Mn16Al8V8CO
_symmetry_space_group_name_H-M   'P 1'
_cell_length_a   8.24397000
_cell_length_b   5.82937000
_cell_length_c   26.18300000
_cell_angle_alpha   90.00000000
_cell_angle_beta   90.00000000
_cell_angle_gamma   90.00000000
_symmetry_Int_Tables_number   1
_chemical_formula_structural   Mn16Al8V8CO
_chemical_formula_sum   'Mn16 Al8 V8 C1 O1'
_cell_volume   1258.28039508
_cell_formula_units_Z   1
loop_
 _symmetry_equiv_pos_site_id
 _symmetry_equiv_pos_as_xyz
  1  'x, y, z'
loop_
 _atom_site_type_symbol
 _atom_site_label
 _atom_site_symmetry_multiplicity
 _atom_site_fract_x
 _atom_site_fract_y
 _atom_site_fract_z
 _atom_site_occupancy
  Mn  Mn0  1  0.00000000  0.74996000  0.03936000  1.0
  Mn  Mn1  1  0.50000000  0.24996000  0.03936000  1.0
  Mn  Mn2  1  0.00000000  0.25004000  0.03936000  1.0
  Mn  Mn3  1  0.50000000  0.75004000  0.03936000  1.0
  Mn  Mn4  1  0.75000000  0.24996000  0.11807000  1.0
  Mn  Mn5  1  0.25000000  0.74996000  0.11807000  1.0
  Mn  Mn6  1  0.75000000  0.75004000  0.11807000  1.0
  Mn  Mn7  1  0.25000000  0.25004000  0.11807000  1.0
  Mn  Mn8  1  0.50115000  0.75694000  0.87971000  1.0
  Mn  Mn9  1  0.99886000  0.24302000  0.87972000  1.0
  Mn  Mn10  1  0.50115000  0.24306000  0.87971000  1.0
  Mn  Mn11  1  0.99886000  0.75698000  0.87972000  1.0
  Mn  Mn12  1  0.25001000  0.25614000  0.95823000  1.0
  Mn  Mn13  1  0.74999000  0.74945000  0.96003000  1.0
  Mn  Mn14  1  0.25001000  0.74386000  0.95823000  1.0
  Mn  Mn15  1  0.74999000  0.25055000  0.96003000  1.0
  Al  Al16  1  0.00000000  0.00000000  0.11807000  1.0
  Al  Al17  1  0.25000000  0.50000000  0.03936000  1.0
  Al  Al18  1  0.75000000  0.50000000  0.03936000  1.0
  Al  Al19  1  0.50000000  0.00000000  0.11807000  1.0
  Al  Al20  1  0.49905000  0.00000000  0.96092000  1.0
  Al  Al21  1  0.75000000  0.50000000  0.87655000  1.0
  Al  Al22  1  0.25000000  0.50000000  0.87453000  1.0
  Al  Al23  1  0.00095000  0.00000000  0.96093000  1.0
  V  V24  1  0.75000000  0.00000000  0.03936000  1.0
  V  V25  1  0.00000000  0.50000000  0.11807000  1.0
  V  V26  1  0.25000000  0.00000000  0.03936000  1.0
  V  V27  1  0.50000000  0.50000000  0.11807000  1.0
  V  V28  1  0.24998000  0.00000000  0.88419000  1.0
  V  V29  1  0.50164000  0.50000000  0.95969000  1.0
  V  V30  1  0.75002000  0.00000000  0.88603000  1.0
  V  V31  1  0.99836000  0.50000000  0.95970000  1.0
  C  C32  1  0.25009000  0.50000000  0.79799000  1.0
  O  O33  1  0.25004000  0.50000000  0.75395000  1.0
