# generated using pymatgen
data_Mn16Al8V8CO
_symmetry_space_group_name_H-M   Pm
_cell_length_a   8.24397000
_cell_length_b   5.82937000
_cell_length_c   26.18300000
_cell_angle_alpha   90.00000000
_cell_angle_beta   90.00000000
_cell_angle_gamma   90.00000000
_symmetry_Int_Tables_number   6
_chemical_formula_structural   Mn16Al8V8CO
_chemical_formula_sum   'Mn16 Al8 V8 C1 O1'
_cell_volume   1258.28039508
_cell_formula_units_Z   1
loop_
 _symmetry_equiv_pos_site_id
 _symmetry_equiv_pos_as_xyz
  1  'x, y, z'
  2  'x, -y, z'
loop_
 _atom_site_type_symbol
 _atom_site_label
 _atom_site_symmetry_multiplicity
 _atom_site_fract_x
 _atom_site_fract_y
 _atom_site_fract_z
 _atom_site_occupancy
  Mn  Mn0  2  0.00000000  0.25004000  0.96064000  1.0
  Mn  Mn1  2  0.25000000  0.25004000  0.88193000  1.0
  Mn  Mn2  2  0.25001000  0.25614000  0.04177000  1.0
  Mn  Mn3  2  0.50000000  0.24996000  0.96064000  1.0
  Mn  Mn4  2  0.50115000  0.24306000  0.12029000  1.0
  Mn  Mn5  2  0.74999000  0.25055000  0.03997000  1.0
  Mn  Mn6  2  0.75000000  0.24996000  0.88193000  1.0
  Mn  Mn7  2  0.99886000  0.24302000  0.12028000  1.0
  Al  Al8  1  0.00000000  0.00000000  0.88193000  1.0
  Al  Al9  1  0.00095000  0.00000000  0.03907000  1.0
  Al  Al10  1  0.25000000  0.50000000  0.12547000  1.0
  Al  Al11  1  0.25000000  0.50000000  0.96064000  1.0
  Al  Al12  1  0.49905000  0.00000000  0.03908000  1.0
  Al  Al13  1  0.50000000  0.00000000  0.88193000  1.0
  Al  Al14  1  0.75000000  0.50000000  0.12345000  1.0
  Al  Al15  1  0.75000000  0.50000000  0.96064000  1.0
  V  V16  1  0.00000000  0.50000000  0.88193000  1.0
  V  V17  1  0.24998000  0.00000000  0.11581000  1.0
  V  V18  1  0.25000000  0.00000000  0.96064000  1.0
  V  V19  1  0.50000000  0.50000000  0.88193000  1.0
  V  V20  1  0.50164000  0.50000000  0.04031000  1.0
  V  V21  1  0.75000000  0.00000000  0.96064000  1.0
  V  V22  1  0.75002000  0.00000000  0.11397000  1.0
  V  V23  1  0.99836000  0.50000000  0.04030000  1.0
  C  C24  1  0.25009000  0.50000000  0.20201000  1.0
  O  O25  1  0.25004000  0.50000000  0.24605000  1.0
