# generated using pymatgen
data_Li16Ag8Pb8C
_symmetry_space_group_name_H-M   'P 1'
_cell_length_a   9.68063000
_cell_length_b   6.84524000
_cell_length_c   27.26050000
_cell_angle_alpha   90.00000000
_cell_angle_beta   90.00000000
_cell_angle_gamma   90.00000000
_symmetry_Int_Tables_number   1
_chemical_formula_structural   Li16Ag8Pb8C
_chemical_formula_sum   'Li16 Ag8 Pb8 C1'
_cell_volume   1806.45071833
_cell_formula_units_Z   1
loop_
 _symmetry_equiv_pos_site_id
 _symmetry_equiv_pos_as_xyz
  1  'x, y, z'
loop_
 _atom_site_type_symbol
 _atom_site_label
 _atom_site_symmetry_multiplicity
 _atom_site_fract_x
 _atom_site_fract_y
 _atom_site_fract_z
 _atom_site_occupancy
  Li  Li0  1  0.50000000  1.00000000  0.04439000  1.0
  Li  Li1  1  0.75000000  0.50000000  0.13317000  1.0
  Li  Li2  1  0.00000000  1.00000000  0.04439000  1.0
  Li  Li3  1  0.25000000  0.50000000  0.13317000  1.0
  Li  Li4  1  0.00000000  0.25000000  0.13317000  1.0
  Li  Li5  1  0.50000000  0.25000000  0.13317000  1.0
  Li  Li6  1  0.25000000  0.75000000  0.04439000  1.0
  Li  Li7  1  0.75000000  0.75000000  0.04439000  1.0
  Li  Li8  1  0.00000000  0.99001000  0.86944000  1.0
  Li  Li9  1  0.25328000  0.50078000  0.96131000  1.0
  Li  Li10  1  0.50000000  0.03435000  0.87170000  1.0
  Li  Li11  1  0.74672000  0.50078000  0.96131000  1.0
  Li  Li12  1  0.50000000  0.27634000  0.95261000  1.0
  Li  Li13  1  0.00000000  0.26195000  0.94569000  1.0
  Li  Li14  1  0.72393000  0.72224000  0.87069000  1.0
  Li  Li15  1  0.27607000  0.72224000  0.87069000  1.0
  Ag  Ag16  1  0.75000000  0.25000000  0.04439000  1.0
  Ag  Ag17  1  0.25000000  0.25000000  0.04439000  1.0
  Ag  Ag18  1  0.50000000  0.75000000  0.13317000  1.0
  Ag  Ag19  1  0.00000000  0.75000000  0.13317000  1.0
  Ag  Ag20  1  0.23242000  0.28626000  0.87381000  1.0
  Ag  Ag21  1  0.76758000  0.28626000  0.87381000  1.0
  Ag  Ag22  1  0.00000000  0.73968000  0.95305000  1.0
  Ag  Ag23  1  0.50000000  0.72410000  0.94405000  1.0
  Pb  Pb24  1  0.75000000  0.00000000  0.13317000  1.0
  Pb  Pb25  1  0.00000000  0.50000000  0.04439000  1.0
  Pb  Pb26  1  0.50000000  0.50000000  0.04439000  1.0
  Pb  Pb27  1  0.25000000  0.00000000  0.13317000  1.0
  Pb  Pb28  1  0.25276000  0.99470000  0.95434000  1.0
  Pb  Pb29  1  0.50000000  0.46718000  0.84988000  1.0
  Pb  Pb30  1  0.00000000  0.58059000  0.83918000  1.0
  Pb  Pb31  1  0.74724000  0.99470000  0.95434000  1.0
  C  C32  1  0.00000000  0.28273000  0.86734000  1.0
