# generated using pymatgen
data_Li16Ag8Pb8C
_symmetry_space_group_name_H-M   Pm
_cell_length_a   6.84524000
_cell_length_b   9.68063000
_cell_length_c   27.26050000
_cell_angle_alpha   90.00000000
_cell_angle_beta   90.00000000
_cell_angle_gamma   90.00000000
_symmetry_Int_Tables_number   6
_chemical_formula_structural   Li16Ag8Pb8C
_chemical_formula_sum   'Li16 Ag8 Pb8 C1'
_cell_volume   1806.45071833
_cell_formula_units_Z   1
loop_
 _symmetry_equiv_pos_site_id
 _symmetry_equiv_pos_as_xyz
  1  'x, y, z'
  2  'x, -y, z'
loop_
 _atom_site_type_symbol
 _atom_site_label
 _atom_site_symmetry_multiplicity
 _atom_site_fract_x
 _atom_site_fract_y
 _atom_site_fract_z
 _atom_site_occupancy
  Li  Li0  2  0.50000000  0.25000000  0.86683000  1.0
  Li  Li1  2  0.50078000  0.25328000  0.03869000  1.0
  Li  Li2  2  0.72224000  0.27607000  0.12931000  1.0
  Li  Li3  2  0.75000000  0.25000000  0.95561000  1.0
  Li  Li4  1  -0.00000000  0.50000000  0.95561000  1.0
  Li  Li5  1  -0.00000000  0.00000000  0.95561000  1.0
  Li  Li6  1  0.03435000  0.50000000  0.12830000  1.0
  Li  Li7  1  0.25000000  0.00000000  0.86683000  1.0
  Li  Li8  1  0.25000000  0.50000000  0.86683000  1.0
  Li  Li9  1  0.26195000  0.00000000  0.05431000  1.0
  Li  Li10  1  0.27634000  0.50000000  0.04739000  1.0
  Li  Li11  1  0.99001000  0.00000000  0.13056000  1.0
  Ag  Ag12  2  0.25000000  0.25000000  0.95561000  1.0
  Ag  Ag13  2  0.28626000  0.23242000  0.12619000  1.0
  Ag  Ag14  1  0.72410000  0.50000000  0.05595000  1.0
  Ag  Ag15  1  0.73968000  0.00000000  0.04695000  1.0
  Ag  Ag16  1  0.75000000  0.00000000  0.86683000  1.0
  Ag  Ag17  1  0.75000000  0.50000000  0.86683000  1.0
  Pb  Pb18  2  0.00000000  0.25000000  0.86683000  1.0
  Pb  Pb19  2  0.99470000  0.25276000  0.04566000  1.0
  Pb  Pb20  1  0.46718000  0.50000000  0.15012000  1.0
  Pb  Pb21  1  0.50000000  0.00000000  0.95561000  1.0
  Pb  Pb22  1  0.50000000  0.50000000  0.95561000  1.0
  Pb  Pb23  1  0.58059000  0.00000000  0.16082000  1.0
  C  C24  1  0.28273000  0.00000000  0.13266000  1.0
