# generated using pymatgen
data_Y8Ga8Cu8Pd8C
_symmetry_space_group_name_H-M   Pm
_cell_length_a   6.59466000
_cell_length_b   9.32626000
_cell_length_c   26.99470000
_cell_angle_alpha   90.00000000
_cell_angle_beta   90.00000000
_cell_angle_gamma   90.00000000
_symmetry_Int_Tables_number   6
_chemical_formula_structural   Y8Ga8Cu8Pd8C
_chemical_formula_sum   'Y8 Ga8 Cu8 Pd8 C1'
_cell_volume   1660.26890321
_cell_formula_units_Z   1
loop_
 _symmetry_equiv_pos_site_id
 _symmetry_equiv_pos_as_xyz
  1  'x, y, z'
  2  'x, -y, z'
loop_
 _atom_site_type_symbol
 _atom_site_label
 _atom_site_symmetry_multiplicity
 _atom_site_fract_x
 _atom_site_fract_y
 _atom_site_fract_z
 _atom_site_occupancy
  Y  Y0  2  0.65642000  0.25032000  0.13470000  1.0
  Y  Y1  2  0.75000000  0.25000000  0.95681000  1.0
  Y  Y2  1  0.22855000  0.00000000  0.04833000  1.0
  Y  Y3  1  0.23729000  0.50000000  0.04799000  1.0
  Y  Y4  1  0.25000000  0.00000000  0.87044000  1.0
  Y  Y5  1  0.25000000  0.50000000  0.87044000  1.0
  Ga  Ga6  2  0.17217000  0.24982000  0.13194000  1.0
  Ga  Ga7  2  0.25000000  0.25000000  0.95681000  1.0
  Ga  Ga8  1  0.72199000  0.00000000  0.04938000  1.0
  Ga  Ga9  1  0.73403000  0.50000000  0.03900000  1.0
  Ga  Ga10  1  0.75000000  0.00000000  0.87044000  1.0
  Ga  Ga11  1  0.75000000  0.50000000  0.87044000  1.0
  Cu  Cu12  2  0.00000000  0.25000000  0.87044000  1.0
  Cu  Cu13  2  0.94096000  0.25413000  0.05405000  1.0
  Cu  Cu14  1  0.32822000  0.50000000  0.15248000  1.0
  Cu  Cu15  1  0.35864000  0.00000000  0.14779000  1.0
  Cu  Cu16  1  0.50000000  0.00000000  0.95681000  1.0
  Cu  Cu17  1  0.50000000  0.50000000  0.95681000  1.0
  Pd  Pd18  2  0.48961000  0.25317000  0.03728000  1.0
  Pd  Pd19  2  0.50000000  0.25000000  0.87044000  1.0
  Pd  Pd20  1  0.00000000  0.00000000  0.95681000  1.0
  Pd  Pd21  1  0.00000000  0.50000000  0.95681000  1.0
  Pd  Pd22  1  0.94053000  0.50000000  0.12175000  1.0
  Pd  Pd23  1  0.97033000  0.00000000  0.13415000  1.0
  C  C24  1  0.64203000  0.00000000  0.12776000  1.0
