data_image0
_chemical_formula_structural       Li4Hf4Sn4Pd4C
_chemical_formula_sum              "Li4 Hf4 Sn4 Pd4 C1"
_cell_length_a       6.67688
_cell_length_b       6.67688
_cell_length_c       25.0077
_cell_angle_alpha    90
_cell_angle_beta     90
_cell_angle_gamma    90

_space_group_name_H-M_alt    "P 1"
_space_group_IT_number       1

loop_
  _space_group_symop_operation_xyz
  'x, y, z'

loop_
  _atom_site_type_symbol
  _atom_site_label
  _atom_site_symmetry_multiplicity
  _atom_site_fract_x
  _atom_site_fract_y
  _atom_site_fract_z
  _atom_site_occupancy
  Li  Li1       1.0  0.01299  0.48692  0.10346  1.0000
  Li  Li2       1.0  0.00000  0.00000  0.96663  1.0000
  Li  Li3       1.0  0.50000  0.50000  0.96663  1.0000
  Li  Li4       1.0  0.48692  0.01299  0.10346  1.0000
  Hf  Hf1       1.0  0.03187  0.03187  0.10109  1.0000
  Hf  Hf2       1.0  0.00000  0.50000  0.96663  1.0000
  Hf  Hf3       1.0  0.50000  0.00000  0.96663  1.0000
  Hf  Hf4       1.0  0.46854  0.46854  0.10085  1.0000
  Sn  Sn1       1.0  0.24974  0.24974  0.02450  1.0000
  Sn  Sn2       1.0  0.25000  0.75000  0.89988  1.0000
  Sn  Sn3       1.0  0.75000  0.25000  0.89988  1.0000
  Sn  Sn4       1.0  0.75041  0.75041  0.04521  1.0000
  Pd  Pd1       1.0  0.75019  0.24986  0.03741  1.0000
  Pd  Pd2       1.0  0.75000  0.75000  0.89988  1.0000
  Pd  Pd3       1.0  0.25000  0.25000  0.89988  1.0000
  Pd  Pd4       1.0  0.24986  0.75019  0.03741  1.0000
  C   C1        1.0  0.25033  0.25033  0.11936  1.0000
