# generated using pymatgen
data_Li4Hf4Sn4Pd4C
_symmetry_space_group_name_H-M   Cm
_cell_length_a   9.44253425
_cell_length_b   9.44253425
_cell_length_c   25.00770000
_cell_angle_alpha   90.00000000
_cell_angle_beta   90.00000000
_cell_angle_gamma   90.00000000
_symmetry_Int_Tables_number   8
_chemical_formula_structural   Li4Hf4Sn4Pd4C
_chemical_formula_sum   'Li8 Hf8 Sn8 Pd8 C2'
_cell_volume   2229.72286991
_cell_formula_units_Z   2
loop_
 _symmetry_equiv_pos_site_id
 _symmetry_equiv_pos_as_xyz
  1  'x, y, z'
  2  'x, -y, z'
  3  'x+1/2, y+1/2, z'
  4  'x+1/2, -y+1/2, z'
loop_
 _atom_site_type_symbol
 _atom_site_label
 _atom_site_symmetry_multiplicity
 _atom_site_fract_x
 _atom_site_fract_y
 _atom_site_fract_z
 _atom_site_occupancy
  Li  Li0  4  0.24995500  0.23696500  0.10346000  1.0
  Li  Li1  2  -0.00000000  0.50000000  0.96663000  1.0
  Li  Li2  2  0.00000000  0.00000000  0.96663000  1.0
  Hf  Hf3  4  0.25000000  0.25000000  0.96663000  1.0
  Hf  Hf4  2  0.03187000  0.00000000  0.10109000  1.0
  Hf  Hf5  2  0.46854000  0.00000000  0.10085000  1.0
  Sn  Sn6  4  -0.00000000  0.25000000  0.89988000  1.0
  Sn  Sn7  2  0.24974000  0.00000000  0.02450000  1.0
  Sn  Sn8  2  0.25041000  0.50000000  0.04521000  1.0
  Pd  Pd9  4  0.00002500  0.24983500  0.03741000  1.0
  Pd  Pd10  2  0.25000000  0.50000000  0.89988000  1.0
  Pd  Pd11  2  0.25000000  0.00000000  0.89988000  1.0
  C  C12  2  0.25033000  0.00000000  0.11936000  1.0
