# generated using pymatgen
data_Li8In16Rh8CO
_symmetry_space_group_name_H-M   'P 1'
_cell_length_a   6.57920000
_cell_length_b   9.30439000
_cell_length_c   26.97830000
_cell_angle_alpha   90.00000000
_cell_angle_beta   90.00000000
_cell_angle_gamma   90.00000000
_symmetry_Int_Tables_number   1
_chemical_formula_structural   Li8In16Rh8CO
_chemical_formula_sum   'Li8 In16 Rh8 C1 O1'
_cell_volume   1651.48857747
_cell_formula_units_Z   1
loop_
 _symmetry_equiv_pos_site_id
 _symmetry_equiv_pos_as_xyz
  1  'x, y, z'
loop_
 _atom_site_type_symbol
 _atom_site_label
 _atom_site_symmetry_multiplicity
 _atom_site_fract_x
 _atom_site_fract_y
 _atom_site_fract_z
 _atom_site_occupancy
  Li  Li0  1  0.00000000  0.75000000  0.87067000  1.0
  Li  Li1  1  0.50000000  0.00000000  0.95689000  1.0
  Li  Li2  1  0.50000000  0.50000000  0.95689000  1.0
  Li  Li3  1  0.00000000  0.25000000  0.87067000  1.0
  Li  Li4  1  0.00000000  0.24955000  0.04280000  1.0
  Li  Li5  1  0.50000000  0.50000000  0.13851000  1.0
  Li  Li6  1  0.50000000  0.00000000  0.14373000  1.0
  Li  Li7  1  0.00000000  0.75045000  0.04280000  1.0
  In  In8  1  0.25000000  0.75000000  0.95689000  1.0
  In  In9  1  0.75000000  0.25000000  0.95689000  1.0
  In  In10  1  0.75000000  0.75000000  0.95689000  1.0
  In  In11  1  0.25000000  0.25000000  0.95689000  1.0
  In  In12  1  0.75000000  0.50000000  0.87067000  1.0
  In  In13  1  0.25000000  0.00000000  0.87067000  1.0
  In  In14  1  0.25000000  0.50000000  0.87067000  1.0
  In  In15  1  0.75000000  0.00000000  0.87067000  1.0
  In  In16  1  0.23896000  0.25088000  0.13388000  1.0
  In  In17  1  0.76104000  0.74912000  0.13388000  1.0
  In  In18  1  0.76104000  0.25088000  0.13388000  1.0
  In  In19  1  0.23896000  0.74912000  0.13388000  1.0
  In  In20  1  0.74152000  0.00000000  0.04395000  1.0
  In  In21  1  0.25672000  0.50000000  0.04366000  1.0
  In  In22  1  0.25848000  0.00000000  0.04395000  1.0
  In  In23  1  0.74328000  0.50000000  0.04366000  1.0
  Rh  Rh24  1  0.00000000  0.50000000  0.95689000  1.0
  Rh  Rh25  1  0.50000000  0.75000000  0.87067000  1.0
  Rh  Rh26  1  0.00000000  0.00000000  0.95689000  1.0
  Rh  Rh27  1  0.50000000  0.25000000  0.87067000  1.0
  Rh  Rh28  1  0.00000000  0.00000000  0.12199000  1.0
  Rh  Rh29  1  0.50000000  0.25009000  0.04043000  1.0
  Rh  Rh30  1  0.00000000  0.50000000  0.12285000  1.0
  Rh  Rh31  1  0.50000000  0.74991000  0.04043000  1.0
  C  C32  1  0.50000000  0.00000000  0.22186000  1.0
  O  O33  1  0.50000000  0.00000000  0.26416000  1.0
