# generated using pymatgen
data_LiInCuAu
_symmetry_space_group_name_H-M   Pm
_cell_length_a   6.41124000
_cell_length_b   9.06686000
_cell_length_c   26.80010000
_cell_angle_alpha   90.00000000
_cell_angle_beta   90.00000000
_cell_angle_gamma   90.00000000
_symmetry_Int_Tables_number   6
_chemical_formula_structural   LiInCuAu
_chemical_formula_sum   'Li8 In8 Cu8 Au8'
_cell_volume   1557.88486855
_cell_formula_units_Z   8
loop_
 _symmetry_equiv_pos_site_id
 _symmetry_equiv_pos_as_xyz
  1  'x, y, z'
  2  'x, -y, z'
loop_
 _atom_site_type_symbol
 _atom_site_label
 _atom_site_symmetry_multiplicity
 _atom_site_fract_x
 _atom_site_fract_y
 _atom_site_fract_z
 _atom_site_occupancy
  Li  Li0  2  0.23692000  0.25000000  0.04389000  1.0
  Li  Li1  2  0.25000000  0.25000000  0.87313000  1.0
  Li  Li2  1  0.73125000  0.50000000  0.13539000  1.0
  Li  Li3  1  0.73127000  0.00000000  0.13539000  1.0
  Li  Li4  1  0.75000000  0.00000000  0.95771000  1.0
  Li  Li5  1  0.75000000  0.50000000  0.95771000  1.0
  In  In6  2  -0.00000000  0.25000000  0.95771000  1.0
  In  In7  2  0.01240000  0.25000000  0.14056000  1.0
  In  In8  1  0.50000000  0.00000000  0.87313000  1.0
  In  In9  1  0.50000000  0.50000000  0.87313000  1.0
  In  In10  1  0.50657000  0.00000000  0.04192000  1.0
  In  In11  1  0.50657000  0.50000000  0.04184000  1.0
  Cu  Cu12  2  0.75000000  0.25000000  0.87313000  1.0
  Cu  Cu13  2  0.76330000  0.25001000  0.04418000  1.0
  Cu  Cu14  1  0.24412000  0.00000000  0.12325000  1.0
  Cu  Cu15  1  0.24413000  0.50000000  0.12325000  1.0
  Cu  Cu16  1  0.25000000  0.00000000  0.95771000  1.0
  Cu  Cu17  1  0.25000000  0.50000000  0.95771000  1.0
  Au  Au18  2  0.49071000  0.25001000  0.12189000  1.0
  Au  Au19  2  0.50000000  0.25000000  0.95771000  1.0
  Au  Au20  1  -0.00000000  0.50000000  0.87313000  1.0
  Au  Au21  1  0.00000000  0.00000000  0.87313000  1.0
  Au  Au22  1  0.99306000  0.00000000  0.04203000  1.0
  Au  Au23  1  0.99307000  0.50000000  0.04203000  1.0
