# generated using pymatgen
data_Sc8Ga8Ge8Pd8CO
_symmetry_space_group_name_H-M   'P 1'
_cell_length_a   8.58414000
_cell_length_b   8.08666000
_cell_length_c   25.87790000
_cell_angle_alpha   90.00000000
_cell_angle_beta   90.00000000
_cell_angle_gamma   90.00000000
_symmetry_Int_Tables_number   1
_chemical_formula_structural   Sc8Ga8Ge8Pd8CO
_chemical_formula_sum   'Sc8 Ga8 Ge8 Pd8 C1 O1'
_cell_volume   1796.36674255
_cell_formula_units_Z   1
loop_
 _symmetry_equiv_pos_site_id
 _symmetry_equiv_pos_as_xyz
  1  'x, y, z'
loop_
 _atom_site_type_symbol
 _atom_site_label
 _atom_site_symmetry_multiplicity
 _atom_site_fract_x
 _atom_site_fract_y
 _atom_site_fract_z
 _atom_site_occupancy
  Sc  Sc0  1  0.25000000  0.74999000  0.11357000  1.0
  Sc  Sc1  1  0.24999000  0.74201000  0.95899000  1.0
  Sc  Sc2  1  0.75000000  0.74999000  0.11357000  1.0
  Sc  Sc3  1  0.75000000  0.73610000  0.96060000  1.0
  Sc  Sc4  1  0.25000000  0.25001000  0.11357000  1.0
  Sc  Sc5  1  0.24999000  0.25799000  0.95899000  1.0
  Sc  Sc6  1  0.75000000  0.25001000  0.11357000  1.0
  Sc  Sc7  1  0.75000000  0.26390000  0.96060000  1.0
  Ga  Ga8  1  0.00000000  0.00000000  0.11357000  1.0
  Ga  Ga9  1  0.98946000  0.00000000  0.96859000  1.0
  Ga  Ga10  1  0.50000000  0.00000000  0.11357000  1.0
  Ga  Ga11  1  0.51052000  0.00000000  0.96861000  1.0
  Ga  Ga12  1  0.00000000  0.50000000  0.11357000  1.0
  Ga  Ga13  1  0.00039000  0.50000000  0.93685000  1.0
  Ga  Ga14  1  0.50000000  0.50000000  0.11357000  1.0
  Ga  Ga15  1  0.49961000  0.50000000  0.93679000  1.0
  Ge  Ge16  1  0.25000000  0.00000000  0.03786000  1.0
  Ge  Ge17  1  0.24995000  0.00000000  0.87532000  1.0
  Ge  Ge18  1  0.75000000  0.00000000  0.03786000  1.0
  Ge  Ge19  1  0.75005000  0.00000000  0.88448000  1.0
  Ge  Ge20  1  0.25000000  0.50000000  0.03786000  1.0
  Ge  Ge21  1  0.24989000  0.50000000  0.87205000  1.0
  Ge  Ge22  1  0.75000000  0.50000000  0.03786000  1.0
  Ge  Ge23  1  0.75013000  0.50000000  0.87279000  1.0
  Pd  Pd24  1  0.00000000  0.74999000  0.03786000  1.0
  Pd  Pd25  1  0.00342000  0.79621000  0.88910000  1.0
  Pd  Pd26  1  0.50000000  0.74999000  0.03786000  1.0
  Pd  Pd27  1  0.49658000  0.79634000  0.88912000  1.0
  Pd  Pd28  1  0.00000000  0.25001000  0.03786000  1.0
  Pd  Pd29  1  0.00342000  0.20379000  0.88910000  1.0
  Pd  Pd30  1  0.50000000  0.25001000  0.03786000  1.0
  Pd  Pd31  1  0.49658000  0.20366000  0.88912000  1.0
  C  C32  1  0.24998000  0.00000000  0.79895000  1.0
  O  O33  1  0.25001000  0.00000000  0.75435000  1.0
