# generated using pymatgen
data_Sc8Ga8Ge8Pd8CO
_symmetry_space_group_name_H-M   Pm
_cell_length_a   8.58414000
_cell_length_b   8.08666000
_cell_length_c   25.87790000
_cell_angle_alpha   90.00000000
_cell_angle_beta   90.00000000
_cell_angle_gamma   90.00000000
_symmetry_Int_Tables_number   6
_chemical_formula_structural   Sc8Ga8Ge8Pd8CO
_chemical_formula_sum   'Sc8 Ga8 Ge8 Pd8 C1 O1'
_cell_volume   1796.36674255
_cell_formula_units_Z   1
loop_
 _symmetry_equiv_pos_site_id
 _symmetry_equiv_pos_as_xyz
  1  'x, y, z'
  2  'x, -y, z'
loop_
 _atom_site_type_symbol
 _atom_site_label
 _atom_site_symmetry_multiplicity
 _atom_site_fract_x
 _atom_site_fract_y
 _atom_site_fract_z
 _atom_site_occupancy
  Sc  Sc0  2  0.24999000  0.25799000  0.04101000  1.0
  Sc  Sc1  2  0.25000000  0.25001000  0.88643000  1.0
  Sc  Sc2  2  0.75000000  0.25001000  0.88643000  1.0
  Sc  Sc3  2  0.75000000  0.26390000  0.03940000  1.0
  Ga  Ga4  1  0.00000000  0.00000000  0.88643000  1.0
  Ga  Ga5  1  0.00000000  0.50000000  0.88643000  1.0
  Ga  Ga6  1  0.00039000  0.50000000  0.06315000  1.0
  Ga  Ga7  1  0.49961000  0.50000000  0.06321000  1.0
  Ga  Ga8  1  0.50000000  0.00000000  0.88643000  1.0
  Ga  Ga9  1  0.50000000  0.50000000  0.88643000  1.0
  Ga  Ga10  1  0.51052000  0.00000000  0.03139000  1.0
  Ga  Ga11  1  0.98946000  0.00000000  0.03141000  1.0
  Ge  Ge12  1  0.24989000  0.50000000  0.12795000  1.0
  Ge  Ge13  1  0.24995000  0.00000000  0.12468000  1.0
  Ge  Ge14  1  0.25000000  0.00000000  0.96214000  1.0
  Ge  Ge15  1  0.25000000  0.50000000  0.96214000  1.0
  Ge  Ge16  1  0.75000000  0.00000000  0.96214000  1.0
  Ge  Ge17  1  0.75000000  0.50000000  0.96214000  1.0
  Ge  Ge18  1  0.75005000  0.00000000  0.11552000  1.0
  Ge  Ge19  1  0.75013000  0.50000000  0.12721000  1.0
  Pd  Pd20  2  0.00000000  0.25001000  0.96214000  1.0
  Pd  Pd21  2  0.00342000  0.20379000  0.11090000  1.0
  Pd  Pd22  2  0.49658000  0.20366000  0.11088000  1.0
  Pd  Pd23  2  0.50000000  0.25001000  0.96214000  1.0
  C  C24  1  0.24998000  0.00000000  0.20105000  1.0
  O  O25  1  0.25001000  0.00000000  0.24565000  1.0
