# generated using pymatgen
data_Zr16Co16CO
_symmetry_space_group_name_H-M   Pmm2
_cell_length_a   6.40088000
_cell_length_b   9.05221000
_cell_length_c   26.78920000
_cell_angle_alpha   90.00000000
_cell_angle_beta   90.00000000
_cell_angle_gamma   90.00000000
_symmetry_Int_Tables_number   25
_chemical_formula_structural   Zr16Co16CO
_chemical_formula_sum   'Zr16 Co16 C1 O1'
_cell_volume   1552.22277173
_cell_formula_units_Z   1
loop_
 _symmetry_equiv_pos_site_id
 _symmetry_equiv_pos_as_xyz
  1  'x, y, z'
  2  '-x, -y, z'
  3  '-x, y, z'
  4  'x, -y, z'
loop_
 _atom_site_type_symbol
 _atom_site_label
 _atom_site_symmetry_multiplicity
 _atom_site_fract_x
 _atom_site_fract_y
 _atom_site_fract_z
 _atom_site_occupancy
  Zr  Zr0  2  0.00000000  0.25000000  0.87329000  1.0
  Zr  Zr1  2  0.00000000  0.25004000  0.04275000  1.0
  Zr  Zr2  2  0.50000000  0.24980000  0.04279000  1.0
  Zr  Zr3  2  0.50000000  0.25000000  0.87329000  1.0
  Zr  Zr4  1  0.00000000  0.00000000  0.12171000  1.0
  Zr  Zr5  1  0.00000000  0.00000000  0.95776000  1.0
  Zr  Zr6  1  0.00000000  0.50000000  0.12706000  1.0
  Zr  Zr7  1  0.00000000  0.50000000  0.95776000  1.0
  Zr  Zr8  1  0.50000000  0.00000000  0.12712000  1.0
  Zr  Zr9  1  0.50000000  0.00000000  0.95776000  1.0
  Zr  Zr10  1  0.50000000  0.50000000  0.12710000  1.0
  Zr  Zr11  1  0.50000000  0.50000000  0.95776000  1.0
  Co  Co12  4  0.25000000  0.25000000  0.95776000  1.0
  Co  Co13  4  0.25003000  0.25050000  0.12574000  1.0
  Co  Co14  2  0.24998000  0.50000000  0.04242000  1.0
  Co  Co15  2  0.25000000  0.00000000  0.87329000  1.0
  Co  Co16  2  0.25000000  0.50000000  0.87329000  1.0
  Co  Co17  2  0.25110000  0.00000000  0.04213000  1.0
  C  C18  1  0.00000000  0.00000000  0.20167000  1.0
  O  O19  1  0.00000000  0.00000000  0.24217000  1.0
