# generated using pymatgen
data_Ni8Pt8CO
_symmetry_space_group_name_H-M   'P 1'
_cell_length_a   5.63476000
_cell_length_b   5.63476000
_cell_length_c   25.27280000
_cell_angle_alpha   90.00000000
_cell_angle_beta   90.00000000
_cell_angle_gamma   90.00000000
_symmetry_Int_Tables_number   1
_chemical_formula_structural   Ni8Pt8CO
_chemical_formula_sum   'Ni8 Pt8 C1 O1'
_cell_volume   802.42454837
_cell_formula_units_Z   1
loop_
 _symmetry_equiv_pos_site_id
 _symmetry_equiv_pos_as_xyz
  1  'x, y, z'
loop_
 _atom_site_type_symbol
 _atom_site_label
 _atom_site_symmetry_multiplicity
 _atom_site_fract_x
 _atom_site_fract_y
 _atom_site_fract_z
 _atom_site_occupancy
  Ni  Ni0  1  0.00000000  0.00000000  0.98392000  1.0
  Ni  Ni1  1  0.00000000  0.00000000  0.12301000  1.0
  Ni  Ni2  1  0.00000000  0.50000000  0.98392000  1.0
  Ni  Ni3  1  0.00000000  0.50000000  0.12301000  1.0
  Ni  Ni4  1  0.50000000  0.00000000  0.98392000  1.0
  Ni  Ni5  1  0.50000000  0.00000000  0.12301000  1.0
  Ni  Ni6  1  0.50000000  0.50000000  0.98392000  1.0
  Ni  Ni7  1  0.50000000  0.50000000  0.12301000  1.0
  Pt  Pt8  1  0.75000000  0.75000000  0.91437000  1.0
  Pt  Pt9  1  0.75000000  0.75000000  0.05346000  1.0
  Pt  Pt10  1  0.75000000  0.25000000  0.91437000  1.0
  Pt  Pt11  1  0.75000000  0.25000000  0.05346000  1.0
  Pt  Pt12  1  0.25000000  0.75000000  0.91437000  1.0
  Pt  Pt13  1  0.25000000  0.75000000  0.05346000  1.0
  Pt  Pt14  1  0.25000000  0.25000000  0.91437000  1.0
  Pt  Pt15  1  0.25000000  0.25000000  0.05346000  1.0
  C  C16  1  0.00000000  0.00000000  0.19819000  1.0
  O  O17  1  0.00000000  0.00000000  0.24369000  1.0
