# generated using pymatgen
data_Mn4Ni8Sn4CO
_symmetry_space_group_name_H-M   'P 1'
_cell_length_a   6.10266000
_cell_length_b   6.10266000
_cell_length_c   24.57700000
_cell_angle_alpha   90.00000000
_cell_angle_beta   90.00000000
_cell_angle_gamma   90.00000000
_symmetry_Int_Tables_number   1
_chemical_formula_structural   Mn4Ni8Sn4CO
_chemical_formula_sum   'Mn4 Ni8 Sn4 C1 O1'
_cell_volume   915.30791670
_cell_formula_units_Z   1
loop_
 _symmetry_equiv_pos_site_id
 _symmetry_equiv_pos_as_xyz
  1  'x, y, z'
loop_
 _atom_site_type_symbol
 _atom_site_label
 _atom_site_symmetry_multiplicity
 _atom_site_fract_x
 _atom_site_fract_y
 _atom_site_fract_z
 _atom_site_occupancy
  Mn  Mn0  1  0.00000000  0.00000000  0.09312000  1.0
  Mn  Mn1  1  0.50000000  0.50000000  0.09312000  1.0
  Mn  Mn2  1  0.50000000  0.00000000  0.96896000  1.0
  Mn  Mn3  1  0.00000000  0.50000000  0.96896000  1.0
  Ni  Ni4  1  0.25000000  0.25000000  0.03104000  1.0
  Ni  Ni5  1  0.75000000  0.75000000  0.90688000  1.0
  Ni  Ni6  1  0.75000000  0.25000000  0.03104000  1.0
  Ni  Ni7  1  0.25000000  0.75000000  0.90688000  1.0
  Ni  Ni8  1  0.75000000  0.75000000  0.03104000  1.0
  Ni  Ni9  1  0.25000000  0.25000000  0.90688000  1.0
  Ni  Ni10  1  0.25000000  0.75000000  0.03104000  1.0
  Ni  Ni11  1  0.75000000  0.25000000  0.90688000  1.0
  Sn  Sn12  1  0.00000000  0.00000000  0.96896000  1.0
  Sn  Sn13  1  0.50000000  0.00000000  0.09312000  1.0
  Sn  Sn14  1  0.00000000  0.50000000  0.09312000  1.0
  Sn  Sn15  1  0.50000000  0.50000000  0.96896000  1.0
  C  C16  1  0.00000000  0.00000000  0.17042000  1.0
  O  O17  1  0.00000000  0.00000000  0.21722000  1.0
