data_image0
_chemical_formula_structural       Ga8Fe8Co16C
_chemical_formula_sum              "Ga8 Fe8 Co16 C1"
_cell_length_a       5.7431
_cell_length_b       8.12197
_cell_length_c       26.0915
_cell_angle_alpha    90
_cell_angle_beta     90
_cell_angle_gamma    90

_space_group_name_H-M_alt    "P 1"
_space_group_IT_number       1

loop_
  _space_group_symop_operation_xyz
  'x, y, z'

loop_
  _atom_site_type_symbol
  _atom_site_label
  _atom_site_symmetry_multiplicity
  _atom_site_fract_x
  _atom_site_fract_y
  _atom_site_fract_z
  _atom_site_occupancy
  Ga  Ga1       1.0  0.00000  0.00000  0.88327  1.0000
  Ga  Ga2       1.0  0.50000  0.25000  0.96109  1.0000
  Ga  Ga3       1.0  0.50000  0.75000  0.96109  1.0000
  Ga  Ga4       1.0  0.00000  0.50000  0.88327  1.0000
  Ga  Ga5       1.0  0.00185  0.49877  0.03902  1.0000
  Ga  Ga6       1.0  0.48702  0.75000  0.12302  1.0000
  Ga  Ga7       1.0  0.56835  0.25004  0.15067  1.0000
  Ga  Ga8       1.0  0.00185  0.00122  0.03902  1.0000
  Fe  Fe1       1.0  0.00000  0.75000  0.96109  1.0000
  Fe  Fe2       1.0  0.50000  0.00000  0.88327  1.0000
  Fe  Fe3       1.0  0.00000  0.25000  0.96109  1.0000
  Fe  Fe4       1.0  0.50000  0.50000  0.88327  1.0000
  Fe  Fe5       1.0  0.94703  0.25000  0.11449  1.0000
  Fe  Fe6       1.0  0.50384  0.50259  0.03820  1.0000
  Fe  Fe7       1.0  0.00579  0.75000  0.11492  1.0000
  Fe  Fe8       1.0  0.50384  0.99740  0.03820  1.0000
  Co  Co1       1.0  0.25000  0.00000  0.96109  1.0000
  Co  Co2       1.0  0.75000  0.50000  0.96109  1.0000
  Co  Co3       1.0  0.75000  0.00000  0.96109  1.0000
  Co  Co4       1.0  0.25000  0.50000  0.96109  1.0000
  Co  Co5       1.0  0.75000  0.75000  0.88327  1.0000
  Co  Co6       1.0  0.25000  0.25000  0.88327  1.0000
  Co  Co7       1.0  0.25000  0.75000  0.88327  1.0000
  Co  Co8       1.0  0.75000  0.25000  0.88327  1.0000
  Co  Co9       1.0  0.27078  0.48216  0.11419  1.0000
  Co  Co10      1.0  0.74292  0.99422  0.11452  1.0000
  Co  Co11      1.0  0.74296  0.50582  0.11452  1.0000
  Co  Co12      1.0  0.27078  0.01782  0.11418  1.0000
  Co  Co13      1.0  0.73980  0.24999  0.03865  1.0000
  Co  Co14      1.0  0.25145  0.75001  0.04007  1.0000
  Co  Co15      1.0  0.25847  0.24999  0.04313  1.0000
  Co  Co16      1.0  0.75047  0.75000  0.04044  1.0000
  C   C1        1.0  0.25489  0.24998  0.12006  1.0000
