# generated using pymatgen
data_Ga8Fe8Co16C
_symmetry_space_group_name_H-M   Pm
_cell_length_a   5.74310000
_cell_length_b   8.12197000
_cell_length_c   26.09150000
_cell_angle_alpha   90.00000000
_cell_angle_beta   90.00000000
_cell_angle_gamma   90.00000000
_symmetry_Int_Tables_number   6
_chemical_formula_structural   Ga8Fe8Co16C
_chemical_formula_sum   'Ga8 Fe8 Co16 C1'
_cell_volume   1217.04547724
_cell_formula_units_Z   1
loop_
 _symmetry_equiv_pos_site_id
 _symmetry_equiv_pos_as_xyz
  1  'x, y, z'
  2  'x, -y, z'
loop_
 _atom_site_type_symbol
 _atom_site_label
 _atom_site_symmetry_multiplicity
 _atom_site_fract_x
 _atom_site_fract_y
 _atom_site_fract_z
 _atom_site_occupancy
  Ga  Ga0  2  0.00000000  0.24998000  0.88327000  1.0
  Ga  Ga1  2  0.00185000  0.24879000  0.03902000  1.0
  Ga  Ga2  1  0.48702000  0.50000000  0.12302000  1.0
  Ga  Ga3  1  0.50000000  0.00000000  0.96109000  1.0
  Ga  Ga4  1  0.50000000  0.50000000  0.96109000  1.0
  Ga  Ga5  1  0.56835000  0.00000000  0.15067000  1.0
  Fe  Fe6  2  0.50000000  0.24998000  0.88327000  1.0
  Fe  Fe7  2  0.50384000  0.25261000  0.03820000  1.0
  Fe  Fe8  1  0.00000000  0.00000000  0.96109000  1.0
  Fe  Fe9  1  0.00000000  0.50000000  0.96109000  1.0
  Fe  Fe10  1  0.00579000  0.50000000  0.11492000  1.0
  Fe  Fe11  1  0.94703000  0.00000000  0.11449000  1.0
  Co  Co12  2  0.25000000  0.24998000  0.96109000  1.0
  Co  Co13  2  0.27078000  0.23218000  0.11419000  1.0
  Co  Co14  2  0.74292000  0.25576000  0.11452000  1.0
  Co  Co15  2  0.75000000  0.25002000  0.96109000  1.0
  Co  Co16  1  0.25000000  0.00000000  0.88327000  1.0
  Co  Co17  1  0.25000000  0.50000000  0.88327000  1.0
  Co  Co18  1  0.25145000  0.50000000  0.04007000  1.0
  Co  Co19  1  0.25847000  0.00000000  0.04313000  1.0
  Co  Co20  1  0.73980000  0.00000000  0.03865000  1.0
  Co  Co21  1  0.75000000  0.00000000  0.88327000  1.0
  Co  Co22  1  0.75000000  0.50000000  0.88327000  1.0
  Co  Co23  1  0.75047000  0.50000000  0.04044000  1.0
  C  C24  1  0.25489000  0.00000000  0.12006000  1.0
