# generated using pymatgen
data_Li8Ni8Ge8Pd8C
_symmetry_space_group_name_H-M   'P 1'
_cell_length_a   8.39836000
_cell_length_b   5.93854000
_cell_length_c   26.29880000
_cell_angle_alpha   90.00000000
_cell_angle_beta   90.00000000
_cell_angle_gamma   90.00000000
_symmetry_Int_Tables_number   1
_chemical_formula_structural   Li8Ni8Ge8Pd8C
_chemical_formula_sum   'Li8 Ni8 Ge8 Pd8 C1'
_cell_volume   1311.62626690
_cell_formula_units_Z   1
loop_
 _symmetry_equiv_pos_site_id
 _symmetry_equiv_pos_as_xyz
  1  'x, y, z'
loop_
 _atom_site_type_symbol
 _atom_site_label
 _atom_site_symmetry_multiplicity
 _atom_site_fract_x
 _atom_site_fract_y
 _atom_site_fract_z
 _atom_site_occupancy
  Li  Li0  1  0.25000000  0.00000000  0.03992000  1.0
  Li  Li1  1  0.75000000  0.00000000  0.03992000  1.0
  Li  Li2  1  0.50000000  0.50000000  0.11975000  1.0
  Li  Li3  1  0.00000000  0.50000000  0.11975000  1.0
  Li  Li4  1  0.73451000  0.99131000  0.86261000  1.0
  Li  Li5  1  0.26549000  0.99131000  0.86261000  1.0
  Li  Li6  1  0.00000000  0.49445000  0.95877000  1.0
  Li  Li7  1  0.50000000  0.49566000  0.96404000  1.0
  Ni  Ni8  1  0.00000000  0.75000000  0.03992000  1.0
  Ni  Ni9  1  0.50000000  0.75000000  0.03992000  1.0
  Ni  Ni10  1  0.25000000  0.25000000  0.11975000  1.0
  Ni  Ni11  1  0.75000000  0.25000000  0.11975000  1.0
  Ni  Ni12  1  0.50000000  0.72371000  0.88796000  1.0
  Ni  Ni13  1  0.00000000  0.78244000  0.88916000  1.0
  Ni  Ni14  1  0.74675000  0.24714000  0.95790000  1.0
  Ni  Ni15  1  0.25325000  0.24714000  0.95790000  1.0
  Ge  Ge16  1  0.00000000  0.00000000  0.11975000  1.0
  Ge  Ge17  1  0.50000000  1.00000000  0.11975000  1.0
  Ge  Ge18  1  0.75000000  0.50000000  0.03992000  1.0
  Ge  Ge19  1  0.25000000  0.50000000  0.03992000  1.0
  Ge  Ge20  1  0.50000000  0.00340000  0.95708000  1.0
  Ge  Ge21  1  0.00000000  0.99607000  0.96583000  1.0
  Ge  Ge22  1  0.24259000  0.51012000  0.87406000  1.0
  Ge  Ge23  1  0.75741000  0.51012000  0.87406000  1.0
  Pd  Pd24  1  0.00000000  0.25000000  0.03992000  1.0
  Pd  Pd25  1  0.50000000  0.25000000  0.03992000  1.0
  Pd  Pd26  1  0.25000000  0.75000000  0.11975000  1.0
  Pd  Pd27  1  0.75000000  0.75000000  0.11975000  1.0
  Pd  Pd28  1  0.50000000  0.27353000  0.88249000  1.0
  Pd  Pd29  1  0.00000000  0.20998000  0.88499000  1.0
  Pd  Pd30  1  0.74661000  0.74696000  0.95868000  1.0
  Pd  Pd31  1  0.25339000  0.74696000  0.95868000  1.0
  C  C32  1  0.00000000  0.52370000  0.85467000  1.0
