# generated using pymatgen
data_Li8Ni8Ge8Pd8C
_symmetry_space_group_name_H-M   Pm
_cell_length_a   5.93854000
_cell_length_b   8.39836000
_cell_length_c   26.29880000
_cell_angle_alpha   90.00000000
_cell_angle_beta   90.00000000
_cell_angle_gamma   90.00000000
_symmetry_Int_Tables_number   6
_chemical_formula_structural   Li8Ni8Ge8Pd8C
_chemical_formula_sum   'Li8 Ni8 Ge8 Pd8 C1'
_cell_volume   1311.62626690
_cell_formula_units_Z   1
loop_
 _symmetry_equiv_pos_site_id
 _symmetry_equiv_pos_as_xyz
  1  'x, y, z'
  2  'x, -y, z'
loop_
 _atom_site_type_symbol
 _atom_site_label
 _atom_site_symmetry_multiplicity
 _atom_site_fract_x
 _atom_site_fract_y
 _atom_site_fract_z
 _atom_site_occupancy
  Li  Li0  2  0.00000000  0.25000000  0.96008000  1.0
  Li  Li1  2  0.99131000  0.26549000  0.13739000  1.0
  Li  Li2  1  0.49445000  0.00000000  0.04123000  1.0
  Li  Li3  1  0.49566000  0.50000000  0.03596000  1.0
  Li  Li4  1  0.50000000  0.00000000  0.88025000  1.0
  Li  Li5  1  0.50000000  0.50000000  0.88025000  1.0
  Ni  Ni6  2  0.24714000  0.25325000  0.04210000  1.0
  Ni  Ni7  2  0.25000000  0.25000000  0.88025000  1.0
  Ni  Ni8  1  0.72371000  0.50000000  0.11204000  1.0
  Ni  Ni9  1  0.75000000  0.00000000  0.96008000  1.0
  Ni  Ni10  1  0.75000000  0.50000000  0.96008000  1.0
  Ni  Ni11  1  0.78244000  0.00000000  0.11084000  1.0
  Ge  Ge12  2  0.50000000  0.25000000  0.96008000  1.0
  Ge  Ge13  2  0.51012000  0.24259000  0.12594000  1.0
  Ge  Ge14  1  -0.00000000  0.50000000  0.88025000  1.0
  Ge  Ge15  1  0.00000000  0.00000000  0.88025000  1.0
  Ge  Ge16  1  0.00340000  0.50000000  0.04292000  1.0
  Ge  Ge17  1  0.99607000  0.00000000  0.03417000  1.0
  Pd  Pd18  2  0.74696000  0.25339000  0.04132000  1.0
  Pd  Pd19  2  0.75000000  0.25000000  0.88025000  1.0
  Pd  Pd20  1  0.20998000  0.00000000  0.11501000  1.0
  Pd  Pd21  1  0.25000000  0.00000000  0.96008000  1.0
  Pd  Pd22  1  0.25000000  0.50000000  0.96008000  1.0
  Pd  Pd23  1  0.27353000  0.50000000  0.11751000  1.0
  C  C24  1  0.52370000  0.00000000  0.14533000  1.0
