data_image0
_chemical_formula_structural       Mg16Pd16CO
_chemical_formula_sum              "Mg16 Pd16 C1 O1"
_cell_length_a       6.43103
_cell_length_b       9.09485
_cell_length_c       26.8211
_cell_angle_alpha    90
_cell_angle_beta     90
_cell_angle_gamma    90

_space_group_name_H-M_alt    "P 1"
_space_group_IT_number       1

loop_
  _space_group_symop_operation_xyz
  'x, y, z'

loop_
  _atom_site_type_symbol
  _atom_site_label
  _atom_site_symmetry_multiplicity
  _atom_site_fract_x
  _atom_site_fract_y
  _atom_site_fract_z
  _atom_site_occupancy
  Mg  Mg1       1.0  0.00000  0.00000  0.87284  1.0000
  Mg  Mg2       1.0  0.00000  0.25000  0.95761  1.0000
  Mg  Mg3       1.0  0.00000  0.50000  0.04239  1.0000
  Mg  Mg4       1.0  0.00000  0.25000  0.12716  1.0000
  Mg  Mg5       1.0  0.00000  0.50000  0.87284  1.0000
  Mg  Mg6       1.0  0.00000  0.75000  0.95761  1.0000
  Mg  Mg7       1.0  0.00000  0.00000  0.04239  1.0000
  Mg  Mg8       1.0  0.00000  0.75000  0.12716  1.0000
  Mg  Mg9       1.0  0.50000  0.00000  0.87284  1.0000
  Mg  Mg10      1.0  0.50000  0.25000  0.95761  1.0000
  Mg  Mg11      1.0  0.50000  0.50000  0.04239  1.0000
  Mg  Mg12      1.0  0.50000  0.25000  0.12716  1.0000
  Mg  Mg13      1.0  0.50000  0.50000  0.87284  1.0000
  Mg  Mg14      1.0  0.50000  0.75000  0.95761  1.0000
  Mg  Mg15      1.0  0.50000  0.00000  0.04239  1.0000
  Mg  Mg16      1.0  0.50000  0.75000  0.12716  1.0000
  Pd  Pd1       1.0  0.25000  0.25000  0.87284  1.0000
  Pd  Pd2       1.0  0.25000  0.00000  0.95761  1.0000
  Pd  Pd3       1.0  0.25000  0.25000  0.04239  1.0000
  Pd  Pd4       1.0  0.25000  0.50000  0.12716  1.0000
  Pd  Pd5       1.0  0.25000  0.75000  0.87284  1.0000
  Pd  Pd6       1.0  0.25000  0.50000  0.95761  1.0000
  Pd  Pd7       1.0  0.25000  0.75000  0.04239  1.0000
  Pd  Pd8       1.0  0.25000  0.00000  0.12716  1.0000
  Pd  Pd9       1.0  0.75000  0.25000  0.87284  1.0000
  Pd  Pd10      1.0  0.75000  0.00000  0.95761  1.0000
  Pd  Pd11      1.0  0.75000  0.25000  0.04239  1.0000
  Pd  Pd12      1.0  0.75000  0.50000  0.12716  1.0000
  Pd  Pd13      1.0  0.75000  0.75000  0.87284  1.0000
  Pd  Pd14      1.0  0.75000  0.50000  0.95761  1.0000
  Pd  Pd15      1.0  0.75000  0.75000  0.04239  1.0000
  Pd  Pd16      1.0  0.75000  0.00000  0.12716  1.0000
  C   C1        1.0  0.25000  0.00000  0.19800  1.0000
  O   O1        1.0  0.25000  0.00000  0.24088  1.0000
