# generated using pymatgen
data_ScGaGePd
_symmetry_space_group_name_H-M   'P 1'
_cell_length_a   8.58414000
_cell_length_b   7.83718000
_cell_length_c   26.06500000
_cell_angle_alpha   90.00000000
_cell_angle_beta   90.00000000
_cell_angle_gamma   90.00000000
_symmetry_Int_Tables_number   1
_chemical_formula_structural   ScGaGePd
_chemical_formula_sum   'Sc8 Ga8 Ge8 Pd8'
_cell_volume   1753.53461273
_cell_formula_units_Z   8
loop_
 _symmetry_equiv_pos_site_id
 _symmetry_equiv_pos_as_xyz
  1  'x, y, z'
loop_
 _atom_site_type_symbol
 _atom_site_label
 _atom_site_symmetry_multiplicity
 _atom_site_fract_x
 _atom_site_fract_y
 _atom_site_fract_z
 _atom_site_occupancy
  Sc  Sc0  1  0.50000000  0.00000000  0.03776000  1.0
  Sc  Sc1  1  0.50000000  0.00000000  0.88366000  1.0
  Sc  Sc2  1  0.50000000  0.50001000  0.03778000  1.0
  Sc  Sc3  1  0.50000000  0.50000000  0.88366000  1.0
  Sc  Sc4  1  0.00000000  0.00002000  0.03777000  1.0
  Sc  Sc5  1  0.00000000  0.00000000  0.88366000  1.0
  Sc  Sc6  1  0.00000000  0.49997000  0.03778000  1.0
  Sc  Sc7  1  0.00000000  0.50000000  0.88366000  1.0
  Ga  Ga8  1  0.74999000  0.00002000  0.11687000  1.0
  Ga  Ga9  1  0.75001000  0.00000000  0.96122000  1.0
  Ga  Ga10  1  0.75000000  0.49997000  0.11686000  1.0
  Ga  Ga11  1  0.75001000  0.50000000  0.96122000  1.0
  Ga  Ga12  1  0.25001000  0.00002000  0.11687000  1.0
  Ga  Ga13  1  0.24999000  0.00000000  0.96122000  1.0
  Ga  Ga14  1  0.25000000  0.49997000  0.11686000  1.0
  Ga  Ga15  1  0.24999000  0.50000000  0.96122000  1.0
  Ge  Ge16  1  0.50000000  0.75009000  0.12182000  1.0
  Ge  Ge17  1  0.50000000  0.75000000  0.96122000  1.0
  Ge  Ge18  1  0.50000000  0.24997000  0.12184000  1.0
  Ge  Ge19  1  0.50000000  0.25000000  0.96122000  1.0
  Ge  Ge20  1  0.00000000  0.74996000  0.12178000  1.0
  Ge  Ge21  1  0.00000000  0.75000000  0.96122000  1.0
  Ge  Ge22  1  0.00000000  0.24998000  0.12182000  1.0
  Ge  Ge23  1  0.00000000  0.25000000  0.96122000  1.0
  Pd  Pd24  1  0.75000000  0.75001000  0.04022000  1.0
  Pd  Pd25  1  0.75001000  0.75000000  0.88366000  1.0
  Pd  Pd26  1  0.75000000  0.25000000  0.04022000  1.0
  Pd  Pd27  1  0.75001000  0.25000000  0.88366000  1.0
  Pd  Pd28  1  0.25000000  0.75001000  0.04022000  1.0
  Pd  Pd29  1  0.24999000  0.75000000  0.88366000  1.0
  Pd  Pd30  1  0.25000000  0.25000000  0.04022000  1.0
  Pd  Pd31  1  0.24999000  0.25000000  0.88366000  1.0
