# generated using pymatgen
data_ScGaGePd
_symmetry_space_group_name_H-M   Pm
_cell_length_a   7.83718000
_cell_length_b   8.58414000
_cell_length_c   26.06500000
_cell_angle_alpha   90.00000000
_cell_angle_beta   90.00000000
_cell_angle_gamma   90.00000000
_symmetry_Int_Tables_number   6
_chemical_formula_structural   ScGaGePd
_chemical_formula_sum   'Sc8 Ga8 Ge8 Pd8'
_cell_volume   1753.53461273
_cell_formula_units_Z   8
loop_
 _symmetry_equiv_pos_site_id
 _symmetry_equiv_pos_as_xyz
  1  'x, y, z'
  2  'x, -y, z'
loop_
 _atom_site_type_symbol
 _atom_site_label
 _atom_site_symmetry_multiplicity
 _atom_site_fract_x
 _atom_site_fract_y
 _atom_site_fract_z
 _atom_site_occupancy
  Sc  Sc0  1  0.00000000  0.00000000  0.11634000  1.0
  Sc  Sc1  1  0.00000000  0.50000000  0.11634000  1.0
  Sc  Sc2  1  0.00000000  0.50000000  0.96224000  1.0
  Sc  Sc3  1  0.00002000  0.00000000  0.96223000  1.0
  Sc  Sc4  1  0.49997000  0.00000000  0.96222000  1.0
  Sc  Sc5  1  0.50000000  0.00000000  0.11634000  1.0
  Sc  Sc6  1  0.50000000  0.50000000  0.11634000  1.0
  Sc  Sc7  1  0.50001000  0.50000000  0.96222000  1.0
  Ga  Ga8  2  0.00000000  0.24999000  0.03878000  1.0
  Ga  Ga9  2  0.00002000  0.25001000  0.88313000  1.0
  Ga  Ga10  2  0.49997000  0.25000000  0.88314000  1.0
  Ga  Ga11  2  0.50000000  0.24999000  0.03878000  1.0
  Ge  Ge12  1  0.24997000  0.50000000  0.87816000  1.0
  Ge  Ge13  1  0.24998000  0.00000000  0.87818000  1.0
  Ge  Ge14  1  0.25000000  0.00000000  0.03878000  1.0
  Ge  Ge15  1  0.25000000  0.50000000  0.03878000  1.0
  Ge  Ge16  1  0.74996000  0.00000000  0.87822000  1.0
  Ge  Ge17  1  0.75000000  0.00000000  0.03878000  1.0
  Ge  Ge18  1  0.75000000  0.50000000  0.03878000  1.0
  Ge  Ge19  1  0.75009000  0.50000000  0.87818000  1.0
  Pd  Pd20  2  0.25000000  0.24999000  0.11634000  1.0
  Pd  Pd21  2  0.25000000  0.25000000  0.95978000  1.0
  Pd  Pd22  2  0.75000000  0.24999000  0.11634000  1.0
  Pd  Pd23  2  0.75001000  0.25000000  0.95978000  1.0
