# generated using pymatgen
data_Li8Hf8Sn8Pd8C
_symmetry_space_group_name_H-M   'P 1'
_cell_length_a   9.44254000
_cell_length_b   6.67688000
_cell_length_c   27.08190000
_cell_angle_alpha   90.00000000
_cell_angle_beta   90.00000000
_cell_angle_gamma   90.00000000
_symmetry_Int_Tables_number   1
_chemical_formula_structural   Li8Hf8Sn8Pd8C
_chemical_formula_sum   'Li8 Hf8 Sn8 Pd8 C1'
_cell_volume   1707.42460009
_cell_formula_units_Z   1
loop_
 _symmetry_equiv_pos_site_id
 _symmetry_equiv_pos_as_xyz
  1  'x, y, z'
loop_
 _atom_site_type_symbol
 _atom_site_label
 _atom_site_symmetry_multiplicity
 _atom_site_fract_x
 _atom_site_fract_y
 _atom_site_fract_z
 _atom_site_occupancy
  Li  Li0  1  0.25000000  0.00000000  0.04358000  1.0
  Li  Li1  1  0.75000000  0.00000000  0.04358000  1.0
  Li  Li2  1  0.50000000  0.50000000  0.13075000  1.0
  Li  Li3  1  0.00000000  0.50000000  0.13075000  1.0
  Li  Li4  1  0.76987000  0.96303000  0.85257000  1.0
  Li  Li5  1  0.23013000  0.96303000  0.85257000  1.0
  Li  Li6  1  0.00000000  0.51355000  0.96134000  1.0
  Li  Li7  1  0.50000000  0.50027000  0.96372000  1.0
  Hf  Hf8  1  0.00000000  0.00000000  0.13075000  1.0
  Hf  Hf9  1  0.50000000  0.00000000  0.13075000  1.0
  Hf  Hf10  1  0.75000000  0.50000000  0.04358000  1.0
  Hf  Hf11  1  0.25000000  0.50000000  0.04358000  1.0
  Hf  Hf12  1  0.50000000  0.06732000  0.93232000  1.0
  Hf  Hf13  1  0.00000000  0.03391000  0.93874000  1.0
  Hf  Hf14  1  0.24768000  0.43909000  0.88542000  1.0
  Hf  Hf15  1  0.75232000  0.43909000  0.88542000  1.0
  Sn  Sn16  1  0.00000000  0.25000000  0.04358000  1.0
  Sn  Sn17  1  0.50000000  0.25000000  0.04358000  1.0
  Sn  Sn18  1  0.25000000  0.75000000  0.13075000  1.0
  Sn  Sn19  1  0.75000000  0.75000000  0.13075000  1.0
  Sn  Sn20  1  0.50000000  0.27669000  0.83769000  1.0
  Sn  Sn21  1  0.00000000  0.27234000  0.82646000  1.0
  Sn  Sn22  1  0.73532000  0.77881000  0.95588000  1.0
  Sn  Sn23  1  0.26468000  0.77881000  0.95588000  1.0
  Pd  Pd24  1  0.00000000  0.75000000  0.04358000  1.0
  Pd  Pd25  1  0.50000000  0.75000000  0.04358000  1.0
  Pd  Pd26  1  0.25000000  0.25000000  0.13075000  1.0
  Pd  Pd27  1  0.75000000  0.25000000  0.13075000  1.0
  Pd  Pd28  1  0.50000000  0.69048000  0.88506000  1.0
  Pd  Pd29  1  0.00000000  0.66341000  0.87313000  1.0
  Pd  Pd30  1  0.74842000  0.22599000  0.96784000  1.0
  Pd  Pd31  1  0.25158000  0.22599000  0.96784000  1.0
  C  C32  1  0.00000000  0.97935000  0.86427000  1.0
