# generated using pymatgen
data_Mn4Co8Ge4CO
_symmetry_space_group_name_H-M   'P 1'
_cell_length_a   5.75846000
_cell_length_b   5.75846000
_cell_length_c   24.31880000
_cell_angle_alpha   90.00000000
_cell_angle_beta   90.00000000
_cell_angle_gamma   90.00000000
_symmetry_Int_Tables_number   1
_chemical_formula_structural   Mn4Co8Ge4CO
_chemical_formula_sum   'Mn4 Co8 Ge4 C1 O1'
_cell_volume   806.40804159
_cell_formula_units_Z   1
loop_
 _symmetry_equiv_pos_site_id
 _symmetry_equiv_pos_as_xyz
  1  'x, y, z'
loop_
 _atom_site_type_symbol
 _atom_site_label
 _atom_site_symmetry_multiplicity
 _atom_site_fract_x
 _atom_site_fract_y
 _atom_site_fract_z
 _atom_site_occupancy
  Mn  Mn0  1  0.00000000  0.50000000  0.08880000  1.0
  Mn  Mn1  1  0.50000000  0.00000000  0.08880000  1.0
  Mn  Mn2  1  0.50000000  0.50000000  0.97040000  1.0
  Mn  Mn3  1  0.00000000  0.00000000  0.97040000  1.0
  Co  Co4  1  0.25000000  0.75000000  0.02960000  1.0
  Co  Co5  1  0.75000000  0.25000000  0.91120000  1.0
  Co  Co6  1  0.75000000  0.75000000  0.02960000  1.0
  Co  Co7  1  0.25000000  0.25000000  0.91120000  1.0
  Co  Co8  1  0.75000000  0.25000000  0.02960000  1.0
  Co  Co9  1  0.25000000  0.75000000  0.91120000  1.0
  Co  Co10  1  0.25000000  0.25000000  0.02960000  1.0
  Co  Co11  1  0.75000000  0.75000000  0.91120000  1.0
  Ge  Ge12  1  0.00000000  0.50000000  0.97040000  1.0
  Ge  Ge13  1  0.50000000  0.50000000  0.08880000  1.0
  Ge  Ge14  1  0.00000000  0.00000000  0.08880000  1.0
  Ge  Ge15  1  0.50000000  0.00000000  0.97040000  1.0
  C  C16  1  0.00000000  0.00000000  0.16692000  1.0
  O  O17  1  0.00000000  0.00000000  0.21421000  1.0
