# generated using pymatgen
data_Li4V4Ge4Pd4CO
_symmetry_space_group_name_H-M   P1
_cell_length_a   5.68832000
_cell_length_b   6.38622000
_cell_length_c   24.77250000
_cell_angle_alpha   90.00000000
_cell_angle_beta   90.00000000
_cell_angle_gamma   90.00000000
_symmetry_Int_Tables_number   1
_chemical_formula_structural   Li4V4Ge4Pd4CO
_chemical_formula_sum   'Li4 V4 Ge4 Pd4 C1 O1'
_cell_volume   899.90721244
_cell_formula_units_Z   1
loop_
 _symmetry_equiv_pos_site_id
 _symmetry_equiv_pos_as_xyz
  1  'x, y, z'
loop_
 _atom_site_type_symbol
 _atom_site_label
 _atom_site_symmetry_multiplicity
 _atom_site_fract_x
 _atom_site_fract_y
 _atom_site_fract_z
 _atom_site_occupancy
  Li  Li0  1  0.25000000  0.18657000  0.90367000  1.0
  Li  Li1  1  0.25021000  0.71814000  0.02615000  1.0
  Li  Li2  1  0.74980000  0.71834000  0.02620000  1.0
  Li  Li3  1  0.75000000  0.18657000  0.90367000  1.0
  V  V4  1  0.25000000  0.68657000  0.90367000  1.0
  V  V5  1  0.25033000  0.22941000  0.03634000  1.0
  V  V6  1  0.74967000  0.22934000  0.03637000  1.0
  V  V7  1  0.75000000  0.68657000  0.90367000  1.0
  Ge  Ge8  1  0.00000000  0.45771000  0.96789000  1.0
  Ge  Ge9  1  0.00018000  0.96007000  0.09017000  1.0
  Ge  Ge10  1  0.49979000  0.96061000  0.09135000  1.0
  Ge  Ge11  1  0.50000000  0.45771000  0.96789000  1.0
  Pd  Pd12  1  0.00000000  0.51703000  0.09164000  1.0
  Pd  Pd13  1  0.00000000  0.95771000  0.96789000  1.0
  Pd  Pd14  1  0.50000000  0.51814000  0.09152000  1.0
  Pd  Pd15  1  0.50000000  0.95771000  0.96789000  1.0
  C  C16  1  0.00128000  0.03675000  0.22903000  1.0
  O  O17  1  0.99939000  0.91013000  0.26121000  1.0
