data_image0
_chemical_formula_structural       Li4Mg4In4Cu4C
_chemical_formula_sum              "Li4 Mg4 In4 Cu4 C1"
_cell_length_a       6.43808
_cell_length_b       6.43808
_cell_length_c       24.8286
_cell_angle_alpha    90
_cell_angle_beta     90
_cell_angle_gamma    90

_space_group_name_H-M_alt    "P 1"
_space_group_IT_number       1

loop_
  _space_group_symop_operation_xyz
  'x, y, z'

loop_
  _atom_site_type_symbol
  _atom_site_label
  _atom_site_symmetry_multiplicity
  _atom_site_fract_x
  _atom_site_fract_y
  _atom_site_fract_z
  _atom_site_occupancy
  Li  Li1       1.0  0.00000  0.50000  0.90276  1.0000
  Li  Li2       1.0  1.00000  1.00000  0.03869  1.0000
  Li  Li3       1.0  0.50000  0.50000  0.03869  1.0000
  Li  Li4       1.0  0.50000  0.00000  0.90276  1.0000
  Mg  Mg1       1.0  0.75000  0.25000  0.96759  1.0000
  Mg  Mg2       1.0  0.75827  0.74173  0.11178  1.0000
  Mg  Mg3       1.0  0.24172  0.25827  0.11177  1.0000
  Mg  Mg4       1.0  0.25000  0.75000  0.96759  1.0000
  In  In1       1.0  0.25000  0.25000  0.96759  1.0000
  In  In2       1.0  0.25827  0.75827  0.11582  1.0000
  In  In3       1.0  0.74173  0.24173  0.11582  1.0000
  In  In4       1.0  0.75000  0.75000  0.96759  1.0000
  Cu  Cu1       1.0  0.00000  0.00000  0.90276  1.0000
  Cu  Cu2       1.0  1.00000  0.50000  0.03168  1.0000
  Cu  Cu3       1.0  0.50000  1.00000  0.03571  1.0000
  Cu  Cu4       1.0  0.50000  0.50000  0.90276  1.0000
  C   C1        1.0  0.00000  0.50000  0.11231  1.0000
