# generated using pymatgen
data_Li4Sc4In4Ga4CO
_symmetry_space_group_name_H-M   'P 1'
_cell_length_a   8.37318000
_cell_length_b   6.04935000
_cell_length_c   24.52450000
_cell_angle_alpha   90.00000000
_cell_angle_beta   90.00000000
_cell_angle_gamma   90.00000000
_symmetry_Int_Tables_number   1
_chemical_formula_structural   Li4Sc4In4Ga4CO
_chemical_formula_sum   'Li4 Sc4 In4 Ga4 C1 O1'
_cell_volume   1242.22224387
_cell_formula_units_Z   1
loop_
 _symmetry_equiv_pos_site_id
 _symmetry_equiv_pos_as_xyz
  1  'x, y, z'
loop_
 _atom_site_type_symbol
 _atom_site_label
 _atom_site_symmetry_multiplicity
 _atom_site_fract_x
 _atom_site_fract_y
 _atom_site_fract_z
 _atom_site_occupancy
  Li  Li0  1  0.24385000  0.75354000  0.95883000  1.0
  Li  Li1  1  0.24999000  0.19428000  0.09224000  1.0
  Li  Li2  1  0.75615000  0.75354000  0.95883000  1.0
  Li  Li3  1  0.75001000  0.19428000  0.09224000  1.0
  Sc  Sc4  1  0.25070000  0.24592000  0.96828000  1.0
  Sc  Sc5  1  0.24999000  0.69428000  0.09224000  1.0
  Sc  Sc6  1  0.74930000  0.24592000  0.96828000  1.0
  Sc  Sc7  1  0.75001000  0.69428000  0.09224000  1.0
  In  In8  1  0.00000000  0.51325000  0.90468000  1.0
  In  In9  1  0.00000000  0.96285000  0.03075000  1.0
  In  In10  1  0.50000000  0.51662000  0.90452000  1.0
  In  In11  1  0.50000000  0.96285000  0.03075000  1.0
  Ga  Ga12  1  0.00000000  0.00651000  0.90738000  1.0
  Ga  Ga13  1  0.00000000  0.46285000  0.03075000  1.0
  Ga  Ga14  1  0.50000000  0.99654000  0.91107000  1.0
  Ga  Ga15  1  0.50000000  0.46285000  0.03075000  1.0
  C  C16  1  0.00000000  0.99350000  0.82265000  1.0
  O  O17  1  0.00000000  0.99374000  0.77570000  1.0
