# generated using pymatgen
data_Li4Sc4In4Ga4CO
_symmetry_space_group_name_H-M   Pm
_cell_length_a   6.04935000
_cell_length_b   8.37318000
_cell_length_c   24.52450000
_cell_angle_alpha   90.00000000
_cell_angle_beta   90.00000000
_cell_angle_gamma   90.00000000
_symmetry_Int_Tables_number   6
_chemical_formula_structural   Li4Sc4In4Ga4CO
_chemical_formula_sum   'Li4 Sc4 In4 Ga4 C1 O1'
_cell_volume   1242.22224387
_cell_formula_units_Z   1
loop_
 _symmetry_equiv_pos_site_id
 _symmetry_equiv_pos_as_xyz
  1  'x, y, z'
  2  'x, -y, z'
loop_
 _atom_site_type_symbol
 _atom_site_label
 _atom_site_symmetry_multiplicity
 _atom_site_fract_x
 _atom_site_fract_y
 _atom_site_fract_z
 _atom_site_occupancy
  Li  Li0  2  0.19428000  0.24999000  0.90776000  1.0
  Li  Li1  2  0.75354000  0.24385000  0.04117000  1.0
  Sc  Sc2  2  0.24592000  0.25070000  0.03172000  1.0
  Sc  Sc3  2  0.69428000  0.24999000  0.90776000  1.0
  In  In4  1  0.51325000  0.00000000  0.09532000  1.0
  In  In5  1  0.51662000  0.50000000  0.09548000  1.0
  In  In6  1  0.96285000  0.00000000  0.96925000  1.0
  In  In7  1  0.96285000  0.50000000  0.96925000  1.0
  Ga  Ga8  1  0.00651000  0.00000000  0.09262000  1.0
  Ga  Ga9  1  0.46285000  0.00000000  0.96925000  1.0
  Ga  Ga10  1  0.46285000  0.50000000  0.96925000  1.0
  Ga  Ga11  1  0.99654000  0.50000000  0.08893000  1.0
  C  C12  1  0.99350000  0.00000000  0.17735000  1.0
  O  O13  1  0.99374000  0.00000000  0.22430000  1.0
