# generated using pymatgen
data_LiYInPt
_symmetry_space_group_name_H-M   Cmm2
_cell_length_a   9.62122013
_cell_length_b   9.62122013
_cell_length_c   25.10240000
_cell_angle_alpha   90.00000000
_cell_angle_beta   90.00000000
_cell_angle_gamma   90.00000000
_symmetry_Int_Tables_number   35
_chemical_formula_structural   LiYInPt
_chemical_formula_sum   'Li8 Y8 In8 Pt8'
_cell_volume   2323.67587224
_cell_formula_units_Z   8
loop_
 _symmetry_equiv_pos_site_id
 _symmetry_equiv_pos_as_xyz
  1  'x, y, z'
  2  '-x, -y, z'
  3  '-x, y, z'
  4  'x, -y, z'
  5  'x+1/2, y+1/2, z'
  6  '-x+1/2, -y+1/2, z'
  7  '-x+1/2, y+1/2, z'
  8  'x+1/2, -y+1/2, z'
loop_
 _atom_site_type_symbol
 _atom_site_label
 _atom_site_symmetry_multiplicity
 _atom_site_fract_x
 _atom_site_fract_y
 _atom_site_fract_z
 _atom_site_occupancy
  Li  Li0  4  0.00000000  0.25182500  0.12520000  1.0
  Li  Li1  4  0.25000000  0.50000000  0.96612000  1.0
  Y  Y2  4  0.25000000  0.25000000  0.89837000  1.0
  Y  Y3  2  0.00000000  0.00000000  0.03495000  1.0
  Y  Y4  2  0.00000000  0.50000000  0.03461000  1.0
  In  In5  4  0.25000000  0.25000000  0.03663000  1.0
  In  In6  2  0.00000000  0.00000000  0.89837000  1.0
  In  In7  2  0.00000000  0.50000000  0.89837000  1.0
  Pt  Pt8  4  0.00000000  0.25000000  0.96612000  1.0
  Pt  Pt9  4  0.24943000  0.50000000  0.09214000  1.0
