# generated using pymatgen
data_Mn8V4Ga4C
_symmetry_space_group_name_H-M   'P 1'
_cell_length_a   5.83886000
_cell_length_b   5.83886000
_cell_length_c   24.37910000
_cell_angle_alpha   90.00000000
_cell_angle_beta   90.00000000
_cell_angle_gamma   90.00000000
_symmetry_Int_Tables_number   1
_chemical_formula_structural   Mn8V4Ga4C
_chemical_formula_sum   'Mn8 V4 Ga4 C1'
_cell_volume   831.13925205
_cell_formula_units_Z   1
loop_
 _symmetry_equiv_pos_site_id
 _symmetry_equiv_pos_as_xyz
  1  'x, y, z'
loop_
 _atom_site_type_symbol
 _atom_site_label
 _atom_site_symmetry_multiplicity
 _atom_site_fract_x
 _atom_site_fract_y
 _atom_site_fract_z
 _atom_site_occupancy
  Mn  Mn0  1  0.50000000  0.50000000  0.02994000  1
  Mn  Mn1  1  0.00000000  0.00000000  0.91019000  1
  Mn  Mn2  1  0.50000000  1.00000000  0.02994000  1
  Mn  Mn3  1  0.00000000  0.50000000  0.91019000  1
  Mn  Mn4  1  0.00000000  0.00000000  0.02994000  1
  Mn  Mn5  1  0.50000000  0.50000000  0.91019000  1
  Mn  Mn6  1  0.00000000  0.50000000  0.02994000  1
  Mn  Mn7  1  0.50000000  1.00000000  0.91019000  1
  V  V8  1  0.75000000  0.25000000  0.08981000  1
  V  V9  1  0.25000000  0.75000000  0.08981000  1
  V  V10  1  0.75000000  0.75000000  0.97006000  1
  V  V11  1  0.25000000  0.25000000  0.97006000  1
  Ga  Ga12  1  0.75000000  0.25000000  0.97006000  1
  Ga  Ga13  1  0.75000000  0.75000000  0.08981000  1
  Ga  Ga14  1  0.25000000  0.25000000  0.08981000  1
  Ga  Ga15  1  0.25000000  0.75000000  0.97006000  1
  C  C16  1  0.50000000  0.50000000  0.12263000  1
