# generated using pymatgen
data_Li16Sn8Au8CO
_symmetry_space_group_name_H-M   'P 1'
_cell_length_a   9.33952000
_cell_length_b   6.60404000
_cell_length_c   27.00460000
_cell_angle_alpha   90.00000000
_cell_angle_beta   90.00000000
_cell_angle_gamma   90.00000000
_symmetry_Int_Tables_number   1
_chemical_formula_structural   Li16Sn8Au8CO
_chemical_formula_sum   'Li16 Sn8 Au8 C1 O1'
_cell_volume   1665.60494023
_cell_formula_units_Z   1
loop_
 _symmetry_equiv_pos_site_id
 _symmetry_equiv_pos_as_xyz
  1  'x, y, z'
loop_
 _atom_site_type_symbol
 _atom_site_label
 _atom_site_symmetry_multiplicity
 _atom_site_fract_x
 _atom_site_fract_y
 _atom_site_fract_z
 _atom_site_occupancy
  Li  Li0  1  0.50000000  1.00000000  0.04323000  1.0
  Li  Li1  1  0.75000000  0.50000000  0.12969000  1.0
  Li  Li2  1  0.00000000  1.00000000  0.04323000  1.0
  Li  Li3  1  0.25000000  0.50000000  0.12969000  1.0
  Li  Li4  1  0.00000000  0.25000000  0.12969000  1.0
  Li  Li5  1  0.50000000  0.25000000  0.12969000  1.0
  Li  Li6  1  0.25000000  0.75000000  0.04323000  1.0
  Li  Li7  1  0.75000000  0.75000000  0.04323000  1.0
  Li  Li8  1  0.00000000  0.02387000  0.87234000  1.0
  Li  Li9  1  0.24860000  0.51210000  0.96285000  1.0
  Li  Li10  1  0.50000000  0.01994000  0.87230000  1.0
  Li  Li11  1  0.75140000  0.51210000  0.96285000  1.0
  Li  Li12  1  0.50000000  0.27980000  0.95016000  1.0
  Li  Li13  1  0.00000000  0.26929000  0.95278000  1.0
  Li  Li14  1  0.75187000  0.72357000  0.87277000  1.0
  Li  Li15  1  0.24813000  0.72357000  0.87277000  1.0
  Sn  Sn16  1  0.75000000  0.00000000  0.12969000  1.0
  Sn  Sn17  1  0.00000000  0.50000000  0.04323000  1.0
  Sn  Sn18  1  0.50000000  0.50000000  0.04323000  1.0
  Sn  Sn19  1  0.25000000  0.00000000  0.12969000  1.0
  Sn  Sn20  1  0.24925000  0.99423000  0.95606000  1.0
  Sn  Sn21  1  0.50000000  0.51131000  0.85478000  1.0
  Sn  Sn22  1  0.00000000  0.49361000  0.85829000  1.0
  Sn  Sn23  1  0.75075000  0.99423000  0.95606000  1.0
  Au  Au24  1  0.75000000  0.25000000  0.04323000  1.0
  Au  Au25  1  0.25000000  0.25000000  0.04323000  1.0
  Au  Au26  1  0.50000000  0.75000000  0.12969000  1.0
  Au  Au27  1  0.00000000  0.75000000  0.12969000  1.0
  Au  Au28  1  0.25633000  0.28666000  0.88209000  1.0
  Au  Au29  1  0.74367000  0.28666000  0.88209000  1.0
  Au  Au30  1  0.00000000  0.73276000  0.94854000  1.0
  Au  Au31  1  0.50000000  0.73231000  0.94988000  1.0
  C  C32  1  0.00000000  0.99285000  0.79550000  1.0
  O  O33  1  0.00000000  0.98911000  0.75320000  1.0
