# generated using pymatgen
data_Li8Sc8In8Ag8C
_symmetry_space_group_name_H-M   Pm
_cell_length_a   6.68683000
_cell_length_b   9.45660000
_cell_length_c   27.09240000
_cell_angle_alpha   90.00000000
_cell_angle_beta   90.00000000
_cell_angle_gamma   90.00000000
_symmetry_Int_Tables_number   6
_chemical_formula_structural   Li8Sc8In8Ag8C
_chemical_formula_sum   'Li8 Sc8 In8 Ag8 C1'
_cell_volume   1713.17915172
_cell_formula_units_Z   1
loop_
 _symmetry_equiv_pos_site_id
 _symmetry_equiv_pos_as_xyz
  1  'x, y, z'
  2  'x, -y, z'
loop_
 _atom_site_type_symbol
 _atom_site_label
 _atom_site_symmetry_multiplicity
 _atom_site_fract_x
 _atom_site_fract_y
 _atom_site_fract_z
 _atom_site_occupancy
  Li  Li0  2  0.50000000  0.24999000  0.86911000  1.0
  Li  Li1  2  0.50110000  0.25116000  0.04843000  1.0
  Li  Li2  1  0.00000000  0.00000000  0.95637000  1.0
  Li  Li3  1  0.00000000  0.50000000  0.95637000  1.0
  Li  Li4  1  0.08489000  0.50000000  0.17077000  1.0
  Li  Li5  1  0.10460000  0.00000000  0.17716000  1.0
  Sc  Sc6  2  0.75000000  0.25001000  0.95637000  1.0
  Sc  Sc7  2  0.81237000  0.22119000  0.13108000  1.0
  Sc  Sc8  1  0.17576000  0.00000000  0.07371000  1.0
  Sc  Sc9  1  0.23961000  0.50000000  0.05396000  1.0
  Sc  Sc10  1  0.25000000  0.00000000  0.86911000  1.0
  Sc  Sc11  1  0.25000000  0.50000000  0.86911000  1.0
  In  In12  2  0.25000000  0.25001000  0.95637000  1.0
  In  In13  2  0.27218000  0.25064000  0.13569000  1.0
  In  In14  1  0.73516000  0.00000000  0.04030000  1.0
  In  In15  1  0.74648000  0.50000000  0.04141000  1.0
  In  In16  1  0.75000000  0.00000000  0.86911000  1.0
  In  In17  1  0.75000000  0.50000000  0.86911000  1.0
  Ag  Ag18  2  0.00000000  0.25001000  0.86911000  1.0
  Ag  Ag19  2  0.00370000  0.26065000  0.04025000  1.0
  Ag  Ag20  1  0.50000000  0.00000000  0.95637000  1.0
  Ag  Ag21  1  0.50000000  0.50000000  0.95637000  1.0
  Ag  Ag22  1  0.50490000  0.00000000  0.13745000  1.0
  Ag  Ag23  1  0.52105000  0.50000000  0.13341000  1.0
  C  C24  1  0.85089000  0.00000000  0.12938000  1.0
