# generated using pymatgen
data_Li8Y8In8Cu8C
_symmetry_space_group_name_H-M   'P 1'
_cell_length_a   9.45282000
_cell_length_b   6.68415000
_cell_length_c   27.08960000
_cell_angle_alpha   90.00000000
_cell_angle_beta   90.00000000
_cell_angle_gamma   90.00000000
_symmetry_Int_Tables_number   1
_chemical_formula_structural   Li8Y8In8Cu8C
_chemical_formula_sum   'Li8 Y8 In8 Cu8 C1'
_cell_volume   1711.63109607
_cell_formula_units_Z   1
loop_
 _symmetry_equiv_pos_site_id
 _symmetry_equiv_pos_as_xyz
  1  'x, y, z'
loop_
 _atom_site_type_symbol
 _atom_site_label
 _atom_site_symmetry_multiplicity
 _atom_site_fract_x
 _atom_site_fract_y
 _atom_site_fract_z
 _atom_site_occupancy
  Li  Li0  1  0.00000000  0.00000000  0.04362000  1.0
  Li  Li1  1  0.50000000  0.00000000  0.04362000  1.0
  Li  Li2  1  0.25000000  0.50000000  0.13085000  1.0
  Li  Li3  1  0.75000000  0.50000000  0.13085000  1.0
  Li  Li4  1  0.50000000  0.19356000  0.80966000  1.0
  Li  Li5  1  0.00000000  0.03511000  0.83034000  1.0
  Li  Li6  1  0.74838000  0.50188000  0.95304000  1.0
  Li  Li7  1  0.25162000  0.50188000  0.95304000  1.0
  Y  Y8  1  0.75000000  0.75000000  0.04362000  1.0
  Y  Y9  1  0.25000000  0.75000000  0.04362000  1.0
  Y  Y10  1  0.00000000  0.25000000  0.13085000  1.0
  Y  Y11  1  0.50000000  0.25000000  0.13085000  1.0
  Y  Y12  1  0.27756000  0.78908000  0.86757000  1.0
  Y  Y13  1  0.72244000  0.78908000  0.86757000  1.0
  Y  Y14  1  0.50000000  0.23412000  0.95053000  1.0
  Y  Y15  1  0.00000000  0.23774000  0.94903000  1.0
  In  In16  1  0.75000000  0.25000000  0.04362000  1.0
  In  In17  1  0.25000000  0.25000000  0.04362000  1.0
  In  In18  1  0.00000000  0.75000000  0.13085000  1.0
  In  In19  1  0.50000000  0.75000000  0.13085000  1.0
  In  In20  1  0.24667000  0.26426000  0.86152000  1.0
  In  In21  1  0.75333000  0.26426000  0.86152000  1.0
  In  In22  1  0.50000000  0.74672000  0.95863000  1.0
  In  In23  1  0.00000000  0.75816000  0.95616000  1.0
  Cu  Cu24  1  0.75000000  0.00000000  0.13085000  1.0
  Cu  Cu25  1  0.25000000  0.00000000  0.13085000  1.0
  Cu  Cu26  1  0.50000000  0.50000000  0.04362000  1.0
  Cu  Cu27  1  0.00000000  0.50000000  0.04362000  1.0
  Cu  Cu28  1  0.25117000  0.99784000  0.95846000  1.0
  Cu  Cu29  1  0.74883000  0.99784000  0.95846000  1.0
  Cu  Cu30  1  0.00000000  0.59085000  0.86564000  1.0
  Cu  Cu31  1  0.50000000  0.50913000  0.86999000  1.0
  C  C32  1  0.00000000  0.31125000  0.86469000  1.0
