# generated using pymatgen
data_Li8Y8In8Cu8C
_symmetry_space_group_name_H-M   Pm
_cell_length_a   6.68415000
_cell_length_b   9.45282000
_cell_length_c   27.08960000
_cell_angle_alpha   90.00000000
_cell_angle_beta   90.00000000
_cell_angle_gamma   90.00000000
_symmetry_Int_Tables_number   6
_chemical_formula_structural   Li8Y8In8Cu8C
_chemical_formula_sum   'Li8 Y8 In8 Cu8 C1'
_cell_volume   1711.63109607
_cell_formula_units_Z   1
loop_
 _symmetry_equiv_pos_site_id
 _symmetry_equiv_pos_as_xyz
  1  'x, y, z'
  2  'x, -y, z'
loop_
 _atom_site_type_symbol
 _atom_site_label
 _atom_site_symmetry_multiplicity
 _atom_site_fract_x
 _atom_site_fract_y
 _atom_site_fract_z
 _atom_site_occupancy
  Li  Li0  2  0.50000000  0.25000000  0.86915000  1.0
  Li  Li1  2  0.50188000  0.25162000  0.04696000  1.0
  Li  Li2  1  0.00000000  0.00000000  0.95638000  1.0
  Li  Li3  1  0.00000000  0.50000000  0.95638000  1.0
  Li  Li4  1  0.03511000  0.00000000  0.16966000  1.0
  Li  Li5  1  0.19356000  0.50000000  0.19034000  1.0
  Y  Y6  2  0.75000000  0.25000000  0.95638000  1.0
  Y  Y7  2  0.78908000  0.27756000  0.13243000  1.0
  Y  Y8  1  0.23412000  0.50000000  0.04947000  1.0
  Y  Y9  1  0.23774000  0.00000000  0.05097000  1.0
  Y  Y10  1  0.25000000  0.00000000  0.86915000  1.0
  Y  Y11  1  0.25000000  0.50000000  0.86915000  1.0
  In  In12  2  0.25000000  0.25000000  0.95638000  1.0
  In  In13  2  0.26426000  0.24667000  0.13848000  1.0
  In  In14  1  0.74672000  0.50000000  0.04137000  1.0
  In  In15  1  0.75000000  0.00000000  0.86915000  1.0
  In  In16  1  0.75000000  0.50000000  0.86915000  1.0
  In  In17  1  0.75816000  0.00000000  0.04384000  1.0
  Cu  Cu18  2  0.00000000  0.25000000  0.86915000  1.0
  Cu  Cu19  2  0.99784000  0.25117000  0.04154000  1.0
  Cu  Cu20  1  0.50000000  0.00000000  0.95638000  1.0
  Cu  Cu21  1  0.50000000  0.50000000  0.95638000  1.0
  Cu  Cu22  1  0.50913000  0.50000000  0.13001000  1.0
  Cu  Cu23  1  0.59085000  0.00000000  0.13436000  1.0
  C  C24  1  0.31125000  0.00000000  0.13531000  1.0
