data_image0
_chemical_formula_structural       Sc8Ni16Sn8CO
_chemical_formula_sum              "Sc8 Ni16 Sn8 C1 O1"
_cell_length_a       6.29417
_cell_length_b       8.9013
_cell_length_c       26.676
_cell_angle_alpha    90
_cell_angle_beta     90
_cell_angle_gamma    90

_space_group_name_H-M_alt    "P 1"
_space_group_IT_number       1

loop_
  _space_group_symop_operation_xyz
  'x, y, z'

loop_
  _atom_site_type_symbol
  _atom_site_label
  _atom_site_symmetry_multiplicity
  _atom_site_fract_x
  _atom_site_fract_y
  _atom_site_fract_z
  _atom_site_occupancy
  Sc  Sc1       1.0  0.00000  0.00000  0.87487  1.0000
  Sc  Sc2       1.0  0.50000  0.25000  0.95829  1.0000
  Sc  Sc3       1.0  0.50000  0.75000  0.95829  1.0000
  Sc  Sc4       1.0  0.00000  0.50000  0.87487  1.0000
  Sc  Sc5       1.0  0.00000  0.50010  0.04101  1.0000
  Sc  Sc6       1.0  0.50000  0.75001  0.12739  1.0000
  Sc  Sc7       1.0  0.50000  0.24999  0.12729  1.0000
  Sc  Sc8       1.0  1.00000  0.99990  0.04101  1.0000
  Ni  Ni1       1.0  0.25000  0.00000  0.95829  1.0000
  Ni  Ni2       1.0  0.75000  0.50000  0.95829  1.0000
  Ni  Ni3       1.0  0.75000  0.00000  0.95829  1.0000
  Ni  Ni4       1.0  0.25000  0.50000  0.95829  1.0000
  Ni  Ni5       1.0  0.75000  0.75000  0.87487  1.0000
  Ni  Ni6       1.0  0.25000  0.25000  0.87487  1.0000
  Ni  Ni7       1.0  0.25000  0.75000  0.87487  1.0000
  Ni  Ni8       1.0  0.75000  0.25000  0.87487  1.0000
  Ni  Ni9       1.0  0.23522  0.50027  0.11962  1.0000
  Ni  Ni10      1.0  0.76478  0.99973  0.11962  1.0000
  Ni  Ni11      1.0  0.76478  0.50027  0.11962  1.0000
  Ni  Ni12      1.0  0.23521  0.99973  0.11962  1.0000
  Ni  Ni13      1.0  0.73928  0.25001  0.04444  1.0000
  Ni  Ni14      1.0  0.25567  0.74999  0.04518  1.0000
  Ni  Ni15      1.0  0.26072  0.25001  0.04444  1.0000
  Ni  Ni16      1.0  0.74433  0.74999  0.04518  1.0000
  Sn  Sn1       1.0  0.00000  0.75000  0.95829  1.0000
  Sn  Sn2       1.0  0.50000  0.00000  0.87487  1.0000
  Sn  Sn3       1.0  0.00000  0.25000  0.95829  1.0000
  Sn  Sn4       1.0  0.50000  0.50000  0.87487  1.0000
  Sn  Sn5       1.0  1.00000  0.25001  0.12920  1.0000
  Sn  Sn6       1.0  0.50000  0.50130  0.04226  1.0000
  Sn  Sn7       1.0  1.00000  0.74999  0.13055  1.0000
  Sn  Sn8       1.0  0.50000  0.99870  0.04226  1.0000
  C   C1        1.0  0.00003  0.25003  0.28390  1.0000
  O   O1        1.0  1.00000  0.25000  0.32647  1.0000
