# generated using pymatgen
data_Sc8Ni16Sn8CO
_symmetry_space_group_name_H-M   Pmm2
_cell_length_a   6.29417000
_cell_length_b   8.90130000
_cell_length_c   26.67600000
_cell_angle_alpha   90.00000000
_cell_angle_beta   90.00000000
_cell_angle_gamma   90.00000000
_symmetry_Int_Tables_number   25
_chemical_formula_structural   Sc8Ni16Sn8CO
_chemical_formula_sum   'Sc8 Ni16 Sn8 C1 O1'
_cell_volume   1494.55745665
_cell_formula_units_Z   1
loop_
 _symmetry_equiv_pos_site_id
 _symmetry_equiv_pos_as_xyz
  1  'x, y, z'
  2  '-x, -y, z'
  3  '-x, y, z'
  4  'x, -y, z'
loop_
 _atom_site_type_symbol
 _atom_site_label
 _atom_site_symmetry_multiplicity
 _atom_site_fract_x
 _atom_site_fract_y
 _atom_site_fract_z
 _atom_site_occupancy
  Sc  Sc0  2  0.00000000  0.25003000  0.87487000  1.0
  Sc  Sc1  2  0.00000000  0.25007000  0.04101000  1.0
  Sc  Sc2  1  0.50000000  0.00000000  0.12729000  1.0
  Sc  Sc3  1  0.50000000  0.00000000  0.95829000  1.0
  Sc  Sc4  1  0.50000000  0.50000000  0.12739000  1.0
  Sc  Sc5  1  0.50000000  0.50000000  0.95829000  1.0
  Ni  Ni6  4  0.23519000  0.25024000  0.11962000  1.0
  Ni  Ni7  4  0.24997000  0.25003000  0.95829000  1.0
  Ni  Ni8  2  0.24997000  0.00000000  0.87487000  1.0
  Ni  Ni9  2  0.25003000  0.50000000  0.87487000  1.0
  Ni  Ni10  2  0.25564000  0.50000000  0.04518000  1.0
  Ni  Ni11  2  0.26075000  0.00000000  0.04444000  1.0
  Sn  Sn12  2  0.50000000  0.25003000  0.87487000  1.0
  Sn  Sn13  2  0.50000000  0.25127000  0.04226000  1.0
  Sn  Sn14  1  0.00000000  0.00000000  0.12920000  1.0
  Sn  Sn15  1  0.00000000  0.00000000  0.95829000  1.0
  Sn  Sn16  1  0.00000000  0.50000000  0.13055000  1.0
  Sn  Sn17  1  0.00000000  0.50000000  0.95829000  1.0
  C  C18  1  0.00000000  0.00000000  0.28390000  1.0
  O  O19  1  0.00000000  0.00000000  0.32647000  1.0
