# generated using pymatgen
data_Hf8Ga8Ni16CO
_symmetry_space_group_name_H-M   'P 1'
_cell_length_a   6.09904000
_cell_length_b   8.62534000
_cell_length_c   26.46900000
_cell_angle_alpha   90.00000000
_cell_angle_beta   90.00000000
_cell_angle_gamma   90.00000000
_symmetry_Int_Tables_number   1
_chemical_formula_structural   Hf8Ga8Ni16CO
_chemical_formula_sum   'Hf8 Ga8 Ni16 C1 O1'
_cell_volume   1392.43598725
_cell_formula_units_Z   1
loop_
 _symmetry_equiv_pos_site_id
 _symmetry_equiv_pos_as_xyz
  1  'x, y, z'
loop_
 _atom_site_type_symbol
 _atom_site_label
 _atom_site_symmetry_multiplicity
 _atom_site_fract_x
 _atom_site_fract_y
 _atom_site_fract_z
 _atom_site_occupancy
  Hf  Hf0  1  0.50000000  0.75002000  0.87780000  1.0
  Hf  Hf1  1  0.00000000  0.00000000  0.95927000  1.0
  Hf  Hf2  1  0.00000000  0.50000000  0.95927000  1.0
  Hf  Hf3  1  0.50000000  0.24998000  0.87780000  1.0
  Hf  Hf4  1  0.50000000  0.25098000  0.04073000  1.0
  Hf  Hf5  1  0.00000000  0.50000000  0.12504000  1.0
  Hf  Hf6  1  0.00000000  0.00000000  0.12369000  1.0
  Hf  Hf7  1  0.50000000  0.74902000  0.04073000  1.0
  Ga  Ga8  1  0.50000000  0.50000000  0.95927000  1.0
  Ga  Ga9  1  0.00000000  0.75002000  0.87780000  1.0
  Ga  Ga10  1  0.50000000  0.00000000  0.95927000  1.0
  Ga  Ga11  1  0.00000000  0.24998000  0.87780000  1.0
  Ga  Ga12  1  0.50000000  0.00000000  0.12400000  1.0
  Ga  Ga13  1  0.00000000  0.24997000  0.04134000  1.0
  Ga  Ga14  1  0.50000000  0.50000000  0.12289000  1.0
  Ga  Ga15  1  0.00000000  0.75003000  0.04134000  1.0
  Ni  Ni16  1  0.75001000  0.75002000  0.95927000  1.0
  Ni  Ni17  1  0.24999000  0.24998000  0.95927000  1.0
  Ni  Ni18  1  0.24999000  0.75002000  0.95927000  1.0
  Ni  Ni19  1  0.75001000  0.24998000  0.95927000  1.0
  Ni  Ni20  1  0.25001000  0.50000000  0.87780000  1.0
  Ni  Ni21  1  0.75001000  0.00000000  0.87780000  1.0
  Ni  Ni22  1  0.74999000  0.50000000  0.87780000  1.0
  Ni  Ni23  1  0.24999000  0.00000000  0.87780000  1.0
  Ni  Ni24  1  0.74489000  0.25080000  0.11827000  1.0
  Ni  Ni25  1  0.25511000  0.74920000  0.11827000  1.0
  Ni  Ni26  1  0.25511000  0.25080000  0.11827000  1.0
  Ni  Ni27  1  0.74489000  0.74920000  0.11827000  1.0
  Ni  Ni28  1  0.23736000  0.00000000  0.04285000  1.0
  Ni  Ni29  1  0.76617000  0.50000000  0.04288000  1.0
  Ni  Ni30  1  0.76264000  0.00000000  0.04285000  1.0
  Ni  Ni31  1  0.23383000  0.50000000  0.04288000  1.0
  C  C32  1  0.50000000  0.00000000  0.20628000  1.0
  O  O33  1  0.50000000  0.00000000  0.24972000  1.0
