# generated using pymatgen
data_Hf8Ga8Ni16CO
_symmetry_space_group_name_H-M   Pmm2
_cell_length_a   6.09904000
_cell_length_b   8.62534000
_cell_length_c   26.46900000
_cell_angle_alpha   90.00000000
_cell_angle_beta   90.00000000
_cell_angle_gamma   90.00000000
_symmetry_Int_Tables_number   25
_chemical_formula_structural   Hf8Ga8Ni16CO
_chemical_formula_sum   'Hf8 Ga8 Ni16 C1 O1'
_cell_volume   1392.43598725
_cell_formula_units_Z   1
loop_
 _symmetry_equiv_pos_site_id
 _symmetry_equiv_pos_as_xyz
  1  'x, y, z'
  2  '-x, -y, z'
  3  '-x, y, z'
  4  'x, -y, z'
loop_
 _atom_site_type_symbol
 _atom_site_label
 _atom_site_symmetry_multiplicity
 _atom_site_fract_x
 _atom_site_fract_y
 _atom_site_fract_z
 _atom_site_occupancy
  Hf  Hf0  2  0.50000000  0.24998000  0.87780000  1.0
  Hf  Hf1  2  0.50000000  0.25098000  0.04073000  1.0
  Hf  Hf2  1  0.00000000  0.00000000  0.12369000  1.0
  Hf  Hf3  1  0.00000000  0.00000000  0.95927000  1.0
  Hf  Hf4  1  0.00000000  0.50000000  0.12504000  1.0
  Hf  Hf5  1  0.00000000  0.50000000  0.95927000  1.0
  Ga  Ga6  2  0.00000000  0.24997000  0.04134000  1.0
  Ga  Ga7  2  0.00000000  0.24998000  0.87780000  1.0
  Ga  Ga8  1  0.50000000  0.00000000  0.12400000  1.0
  Ga  Ga9  1  0.50000000  0.00000000  0.95927000  1.0
  Ga  Ga10  1  0.50000000  0.50000000  0.12289000  1.0
  Ga  Ga11  1  0.50000000  0.50000000  0.95927000  1.0
  Ni  Ni12  4  0.24999000  0.24998000  0.95927000  1.0
  Ni  Ni13  4  0.25511000  0.25080000  0.11827000  1.0
  Ni  Ni14  2  0.23383000  0.50000000  0.04288000  1.0
  Ni  Ni15  2  0.23736000  0.00000000  0.04285000  1.0
  Ni  Ni16  2  0.24999000  0.00000000  0.87780000  1.0
  Ni  Ni17  2  0.25001000  0.50000000  0.87780000  1.0
  C  C18  1  0.50000000  0.00000000  0.20628000  1.0
  O  O19  1  0.50000000  0.00000000  0.24972000  1.0
