# generated using pymatgen
data_Li16Sn8Ge8CO
_symmetry_space_group_name_H-M   P1
_cell_length_a   6.92564000
_cell_length_b   9.79433000
_cell_length_c   27.34580000
_cell_angle_alpha   90.00000000
_cell_angle_beta   90.00000000
_cell_angle_gamma   90.00000000
_symmetry_Int_Tables_number   1
_chemical_formula_structural   Li16Sn8Ge8CO
_chemical_formula_sum   'Li16 Sn8 Ge8 C1 O1'
_cell_volume   1854.92040462
_cell_formula_units_Z   1
loop_
 _symmetry_equiv_pos_site_id
 _symmetry_equiv_pos_as_xyz
  1  'x, y, z'
loop_
 _atom_site_type_symbol
 _atom_site_label
 _atom_site_symmetry_multiplicity
 _atom_site_fract_x
 _atom_site_fract_y
 _atom_site_fract_z
 _atom_site_occupancy
  Li  Li0  1  0.00000000  0.25000000  0.95523000  1.0
  Li  Li1  1  0.00000000  0.75000000  0.95523000  1.0
  Li  Li2  1  0.20843000  0.16743000  0.12398000  1.0
  Li  Li3  1  0.25000000  0.00000000  0.95523000  1.0
  Li  Li4  1  0.25000000  0.50000000  0.95523000  1.0
  Li  Li5  1  0.35043000  0.67809000  0.12305000  1.0
  Li  Li6  1  0.50000000  0.00000000  0.86569000  1.0
  Li  Li7  1  0.50000000  0.50000000  0.86569000  1.0
  Li  Li8  1  0.52511000  0.12083000  0.04829000  1.0
  Li  Li9  1  0.52712000  0.56883000  0.03652000  1.0
  Li  Li10  1  0.70436000  0.84009000  0.04185000  1.0
  Li  Li11  1  0.75000000  0.25000000  0.86569000  1.0
  Li  Li12  1  0.75000000  0.75000000  0.86569000  1.0
  Li  Li13  1  0.81912000  0.35586000  0.04234000  1.0
  Li  Li14  1  0.97858000  0.89035000  0.12248000  1.0
  Li  Li15  1  0.99426000  0.43886000  0.13417000  1.0
  Sn  Sn16  1  0.00000000  0.00000000  0.86569000  1.0
  Sn  Sn17  1  0.00000000  0.50000000  0.86569000  1.0
  Sn  Sn18  1  0.00083000  0.08444000  0.03601000  1.0
  Sn  Sn19  1  0.04235000  0.63179000  0.04722000  1.0
  Sn  Sn20  1  0.50000000  0.25000000  0.95523000  1.0
  Sn  Sn21  1  0.50000000  0.75000000  0.95523000  1.0
  Sn  Sn22  1  0.52601000  0.94511000  0.13948000  1.0
  Sn  Sn23  1  0.52653000  0.39583000  0.12808000  1.0
  Ge  Ge24  1  0.24406000  0.36362000  0.04673000  1.0
  Ge  Ge25  1  0.25000000  0.25000000  0.86569000  1.0
  Ge  Ge26  1  0.25000000  0.75000000  0.86569000  1.0
  Ge  Ge27  1  0.29367000  0.87802000  0.05087000  1.0
  Ge  Ge28  1  0.74465000  0.65927000  0.12196000  1.0
  Ge  Ge29  1  0.75000000  0.00000000  0.95523000  1.0
  Ge  Ge30  1  0.75000000  0.50000000  0.95523000  1.0
  Ge  Ge31  1  0.80006000  0.15879000  0.12279000  1.0
  C  C32  1  0.99776000  0.37830000  0.20787000  1.0
  O  O33  1  0.98531000  0.34515000  0.24776000  1.0
