# generated using pymatgen
data_Ga8Ru8CO
_symmetry_space_group_name_H-M   P4mm
_cell_length_a   6.07363000
_cell_length_b   6.07363000
_cell_length_c   24.55520000
_cell_angle_alpha   90.00000000
_cell_angle_beta   90.00000000
_cell_angle_gamma   90.00000000
_symmetry_Int_Tables_number   99
_chemical_formula_structural   Ga8Ru8CO
_chemical_formula_sum   'Ga8 Ru8 C1 O1'
_cell_volume   905.81631551
_cell_formula_units_Z   1
loop_
 _symmetry_equiv_pos_site_id
 _symmetry_equiv_pos_as_xyz
  1  'x, y, z'
  2  '-y, x, z'
  3  '-x, -y, z'
  4  'y, -x, z'
  5  '-x, y, z'
  6  'y, x, z'
  7  'x, -y, z'
  8  '-y, -x, z'
loop_
 _atom_site_type_symbol
 _atom_site_label
 _atom_site_symmetry_multiplicity
 _atom_site_fract_x
 _atom_site_fract_y
 _atom_site_fract_z
 _atom_site_occupancy
  Ga  Ga0  2  0.00000000  0.50000000  0.08708000  1.0
  Ga  Ga1  2  0.00000000  0.50000000  0.96341000  1.0
  Ga  Ga2  1  0.00000000  0.00000000  0.08708000  1.0
  Ga  Ga3  1  0.00000000  0.00000000  0.96341000  1.0
  Ga  Ga4  1  0.50000000  0.50000000  0.08708000  1.0
  Ga  Ga5  1  0.50000000  0.50000000  0.96341000  1.0
  Ru  Ru6  4  0.25000000  0.25000000  0.02524000  1.0
  Ru  Ru7  4  0.25000000  0.25000000  0.90157000  1.0
  C  C8  1  0.00000000  0.00000000  0.16446000  1.0
  O  O9  1  0.00000000  0.00000000  0.21129000  1.0
