# generated using pymatgen
data_Li8Cu8Sn8Ge8CO
_symmetry_space_group_name_H-M   'P 1'
_cell_length_a   6.57410000
_cell_length_b   9.29718000
_cell_length_c   26.97290000
_cell_angle_alpha   90.00000000
_cell_angle_beta   90.00000000
_cell_angle_gamma   90.00000000
_symmetry_Int_Tables_number   1
_chemical_formula_structural   Li8Cu8Sn8Ge8CO
_chemical_formula_sum   'Li8 Cu8 Sn8 Ge8 C1 O1'
_cell_volume   1648.59959001
_cell_formula_units_Z   1
loop_
 _symmetry_equiv_pos_site_id
 _symmetry_equiv_pos_as_xyz
  1  'x, y, z'
loop_
 _atom_site_type_symbol
 _atom_site_label
 _atom_site_symmetry_multiplicity
 _atom_site_fract_x
 _atom_site_fract_y
 _atom_site_fract_z
 _atom_site_occupancy
  Li  Li0  1  0.00000000  0.25000000  0.95691000  1.0
  Li  Li1  1  0.00000000  0.75000000  0.95691000  1.0
  Li  Li2  1  0.50000000  0.50000000  0.87074000  1.0
  Li  Li3  1  0.50000000  0.00000000  0.87074000  1.0
  Li  Li4  1  0.16162000  0.75011000  0.15080000  1.0
  Li  Li5  1  0.16161000  0.24978000  0.15079000  1.0
  Li  Li6  1  0.55895000  0.00002000  0.04974000  1.0
  Li  Li7  1  0.56501000  0.50002000  0.05045000  1.0
  Cu  Cu8  1  0.00000000  0.00000000  0.87074000  1.0
  Cu  Cu9  1  0.00000000  0.50000000  0.87074000  1.0
  Cu  Cu10  1  0.50000000  0.75000000  0.95691000  1.0
  Cu  Cu11  1  0.50000000  0.25000000  0.95691000  1.0
  Cu  Cu12  1  0.01794000  0.50006000  0.03789000  1.0
  Cu  Cu13  1  0.01787000  0.99999000  0.03744000  1.0
  Cu  Cu14  1  0.55492000  0.24962000  0.12270000  1.0
  Cu  Cu15  1  0.55487000  0.75028000  0.12269000  1.0
  Sn  Sn16  1  0.75000000  0.00000000  0.95691000  1.0
  Sn  Sn17  1  0.75000000  0.50000000  0.95691000  1.0
  Sn  Sn18  1  0.25000000  0.25000000  0.87074000  1.0
  Sn  Sn19  1  0.25000000  0.75000000  0.87074000  1.0
  Sn  Sn20  1  0.84841000  0.49992000  0.13758000  1.0
  Sn  Sn21  1  0.84615000  0.99991000  0.13711000  1.0
  Sn  Sn22  1  0.28164000  0.74933000  0.04575000  1.0
  Sn  Sn23  1  0.28150000  0.25074000  0.04570000  1.0
  Ge  Ge24  1  0.25000000  0.00000000  0.95691000  1.0
  Ge  Ge25  1  0.25000000  0.50000000  0.95691000  1.0
  Ge  Ge26  1  0.75000000  0.25000000  0.87074000  1.0
  Ge  Ge27  1  0.75000000  0.75000000  0.87074000  1.0
  Ge  Ge28  1  0.41743000  0.49987000  0.14704000  1.0
  Ge  Ge29  1  0.41528000  0.99994000  0.14662000  1.0
  Ge  Ge30  1  0.83936000  0.75108000  0.05715000  1.0
  Ge  Ge31  1  0.83925000  0.24893000  0.05716000  1.0
  C  C32  1  0.64432000  0.00000000  0.29001000  1.0
  O  O33  1  0.81629000  0.00003000  0.29384000  1.0
