# generated using pymatgen
data_Li2BiAu
_symmetry_space_group_name_H-M   'P 1'
_cell_length_a   6.87958000
_cell_length_b   4.86459500
_cell_length_c   27.29690000
_cell_angle_alpha   90.00000000
_cell_angle_beta   90.00000000
_cell_angle_gamma   90.00000000
_symmetry_Int_Tables_number   1
_chemical_formula_structural   Li2BiAu
_chemical_formula_sum   'Li8 Bi4 Au4'
_cell_volume   913.52816809
_cell_formula_units_Z   4
loop_
 _symmetry_equiv_pos_site_id
 _symmetry_equiv_pos_as_xyz
  1  'x, y, z'
loop_
 _atom_site_type_symbol
 _atom_site_label
 _atom_site_symmetry_multiplicity
 _atom_site_fract_x
 _atom_site_fract_y
 _atom_site_fract_z
 _atom_site_occupancy
  Li  Li0  1  0.00000000  0.50000000  0.95545000  1.0
  Li  Li1  1  0.50000000  0.00000000  0.86634000  1.0
  Li  Li2  1  0.75000000  0.50000000  0.86634000  1.0
  Li  Li3  1  0.25000000  0.00000000  0.95545000  1.0
  Li  Li4  1  0.97314500  0.50000000  0.12746000  1.0
  Li  Li5  1  0.50590000  0.00000000  0.03622000  1.0
  Li  Li6  1  0.72169500  0.50000000  0.05195000  1.0
  Li  Li7  1  0.32173000  0.00000000  0.12494000  1.0
  Bi  Bi8  1  0.00000000  0.00000000  0.86634000  1.0
  Bi  Bi9  1  0.50000000  0.50000000  0.95545000  1.0
  Bi  Bi10  1  0.03199000  0.00000000  0.04511000  1.0
  Bi  Bi11  1  0.53951500  0.50000000  0.15403000  1.0
  Au  Au12  1  0.75000000  0.00000000  0.95545000  1.0
  Au  Au13  1  0.25000000  0.50000000  0.86634000  1.0
  Au  Au14  1  0.72975000  0.00000000  0.11796000  1.0
  Au  Au15  1  0.28985000  0.50000000  0.06529000  1.0
