# generated using pymatgen
data_Li4In4Cu4Au4C
_symmetry_space_group_name_H-M   Cmm2
_cell_length_a   9.06686256
_cell_length_b   9.06686256
_cell_length_c   24.80840000
_cell_angle_alpha   90.00000000
_cell_angle_beta   90.00000000
_cell_angle_gamma   90.00000000
_symmetry_Int_Tables_number   35
_chemical_formula_structural   Li4In4Cu4Au4C
_chemical_formula_sum   'Li8 In8 Cu8 Au8 C2'
_cell_volume   2039.44886472
_cell_formula_units_Z   2
loop_
 _symmetry_equiv_pos_site_id
 _symmetry_equiv_pos_as_xyz
  1  'x, y, z'
  2  '-x, -y, z'
  3  '-x, y, z'
  4  'x, -y, z'
  5  'x+1/2, y+1/2, z'
  6  '-x+1/2, -y+1/2, z'
  7  '-x+1/2, y+1/2, z'
  8  'x+1/2, -y+1/2, z'
loop_
 _atom_site_type_symbol
 _atom_site_label
 _atom_site_symmetry_multiplicity
 _atom_site_fract_x
 _atom_site_fract_y
 _atom_site_fract_z
 _atom_site_occupancy
  Li  Li0  4  0.25000000  0.25000000  0.03230000  1.0
  Li  Li1  2  0.00000000  0.00000000  0.90309000  1.0
  Li  Li2  2  0.00000000  0.50000000  0.90309000  1.0
  In  In3  4  0.00000000  0.25000000  0.96770000  1.0
  In  In4  4  0.25000000  0.00000000  0.09691000  1.0
  Cu  Cu5  4  0.25000000  0.25000000  0.90309000  1.0
  Cu  Cu6  2  0.00000000  0.00000000  0.03230000  1.0
  Cu  Cu7  2  0.00000000  0.50000000  0.03230000  1.0
  Au  Au8  4  0.00000000  0.25000000  0.09691000  1.0
  Au  Au9  4  0.25000000  0.00000000  0.96770000  1.0
  C  C10  2  0.00000000  0.50000000  0.12916000  1.0
