# generated using pymatgen
data_Zr4Ni8Sn4CO
_symmetry_space_group_name_H-M   P1
_cell_length_a   6.34024000
_cell_length_b   6.34024000
_cell_length_c   24.75520000
_cell_angle_alpha   90.00000000
_cell_angle_beta   90.00000000
_cell_angle_gamma   90.00000000
_symmetry_Int_Tables_number   1
_chemical_formula_structural   Zr4Ni8Sn4CO
_chemical_formula_sum   'Zr4 Ni8 Sn4 C1 O1'
_cell_volume   995.12545357
_cell_formula_units_Z   1
loop_
 _symmetry_equiv_pos_site_id
 _symmetry_equiv_pos_as_xyz
  1  'x, y, z'
loop_
 _atom_site_type_symbol
 _atom_site_label
 _atom_site_symmetry_multiplicity
 _atom_site_fract_x
 _atom_site_fract_y
 _atom_site_fract_z
 _atom_site_occupancy
  Zr  Zr0  1  0.00000000  0.50000000  0.96799000  1.0
  Zr  Zr1  1  0.49992000  0.49991000  0.09363000  1.0
  Zr  Zr2  1  0.50000000  0.00000000  0.96799000  1.0
  Zr  Zr3  1  0.99992000  0.00000000  0.09359000  1.0
  Ni  Ni4  1  0.23938000  0.26077000  0.03506000  1.0
  Ni  Ni5  1  0.23942000  0.73923000  0.03505000  1.0
  Ni  Ni6  1  0.25000000  0.25000000  0.90396000  1.0
  Ni  Ni7  1  0.25000000  0.75000000  0.90396000  1.0
  Ni  Ni8  1  0.75000000  0.25000000  0.90396000  1.0
  Ni  Ni9  1  0.75000000  0.75000000  0.90396000  1.0
  Ni  Ni10  1  0.76044000  0.26068000  0.03502000  1.0
  Ni  Ni11  1  0.76049000  0.73923000  0.03506000  1.0
  Sn  Sn12  1  0.00000000  0.00000000  0.96799000  1.0
  Sn  Sn13  1  0.49992000  0.99999000  0.09816000  1.0
  Sn  Sn14  1  0.50000000  0.50000000  0.96799000  1.0
  Sn  Sn15  1  0.99987000  0.49998000  0.10462000  1.0
  C  C16  1  0.00289000  0.50043000  0.28858000  1.0
  O  O17  1  0.99918000  0.50007000  0.33441000  1.0
