# generated using pymatgen
data_YInSnPd
_symmetry_space_group_name_H-M   Pm
_cell_length_a   6.44465000
_cell_length_b   4.36686000
_cell_length_c   24.83320000
_cell_angle_alpha   90.00000000
_cell_angle_beta   90.00000000
_cell_angle_gamma   90.00000000
_symmetry_Int_Tables_number   6
_chemical_formula_structural   YInSnPd
_chemical_formula_sum   'Y2 In2 Sn2 Pd2'
_cell_volume   698.87787437
_cell_formula_units_Z   2
loop_
 _symmetry_equiv_pos_site_id
 _symmetry_equiv_pos_as_xyz
  1  'x, y, z'
  2  'x, -y, z'
loop_
 _atom_site_type_symbol
 _atom_site_label
 _atom_site_symmetry_multiplicity
 _atom_site_fract_x
 _atom_site_fract_y
 _atom_site_fract_z
 _atom_site_occupancy
  Y  Y0  1  0.47940000  0.00000000  0.09242000  1.0
  Y  Y1  1  0.99451000  0.00000000  0.96756000  1.0
  In  In2  1  0.49451000  0.00000000  0.96756000  1.0
  In  In3  1  0.99069000  0.00000000  0.11322000  1.0
  Sn  Sn4  1  0.24176000  0.50000000  0.90269000  1.0
  Sn  Sn5  1  0.77068500  0.50000000  0.04167000  1.0
  Pd  Pd6  1  0.23994500  0.50000000  0.03208000  1.0
  Pd  Pd7  1  0.74176000  0.50000000  0.90269000  1.0
