# generated using pymatgen
data_ScCu
_symmetry_space_group_name_H-M   Pmm2
_cell_length_a   3.27361500
_cell_length_b   4.62959000
_cell_length_c   26.94440000
_cell_angle_alpha   90.00000000
_cell_angle_beta   90.00000000
_cell_angle_gamma   90.00000000
_symmetry_Int_Tables_number   25
_chemical_formula_structural   ScCu
_chemical_formula_sum   'Sc4 Cu4'
_cell_volume   408.35572670
_cell_formula_units_Z   4
loop_
 _symmetry_equiv_pos_site_id
 _symmetry_equiv_pos_as_xyz
  1  'x, y, z'
  2  '-x, -y, z'
  3  '-x, y, z'
  4  'x, -y, z'
loop_
 _atom_site_type_symbol
 _atom_site_label
 _atom_site_symmetry_multiplicity
 _atom_site_fract_x
 _atom_site_fract_y
 _atom_site_fract_z
 _atom_site_occupancy
  Sc  Sc0  1  0.50000000  0.00000000  0.12961000  1.0
  Sc  Sc1  1  0.50000000  0.00000000  0.95704000  1.0
  Sc  Sc2  1  0.50000000  0.50000000  0.04262500  1.0
  Sc  Sc3  1  0.50000000  0.50000000  0.87113000  1.0
  Cu  Cu4  1  0.00000000  0.00000000  0.04674500  1.0
  Cu  Cu5  1  0.00000000  0.00000000  0.87113000  1.0
  Cu  Cu6  1  0.00000000  0.50000000  0.12233000  1.0
  Cu  Cu7  1  0.00000000  0.50000000  0.95704000  1.0
