# generated using pymatgen
data_Li8Cu8Si8Pd8CO
_symmetry_space_group_name_H-M   'P 1'
_cell_length_a   8.34156000
_cell_length_b   5.89837000
_cell_length_c   26.25620000
_cell_angle_alpha   90.00000000
_cell_angle_beta   90.00000000
_cell_angle_gamma   90.00000000
_symmetry_Int_Tables_number   1
_chemical_formula_structural   Li8Cu8Si8Pd8CO
_chemical_formula_sum   'Li8 Cu8 Si8 Pd8 C1 O1'
_cell_volume   1291.84724047
_cell_formula_units_Z   1
loop_
 _symmetry_equiv_pos_site_id
 _symmetry_equiv_pos_as_xyz
  1  'x, y, z'
loop_
 _atom_site_type_symbol
 _atom_site_label
 _atom_site_symmetry_multiplicity
 _atom_site_fract_x
 _atom_site_fract_y
 _atom_site_fract_z
 _atom_site_occupancy
  Li  Li0  1  0.00000000  0.25000000  0.03971000  1.0
  Li  Li1  1  0.50000000  0.25000000  0.03971000  1.0
  Li  Li2  1  0.25000000  0.75000000  0.11914000  1.0
  Li  Li3  1  0.75000000  0.75000000  0.11914000  1.0
  Li  Li4  1  0.50000000  0.25523000  0.86568000  1.0
  Li  Li5  1  0.00000000  0.25556000  0.86261000  1.0
  Li  Li6  1  0.75050000  0.74944000  0.96460000  1.0
  Li  Li7  1  0.24950000  0.74944000  0.96460000  1.0
  Cu  Cu8  1  0.00000000  0.00000000  0.11914000  1.0
  Cu  Cu9  1  0.50000000  0.00000000  0.11914000  1.0
  Cu  Cu10  1  0.75000000  0.50000000  0.03971000  1.0
  Cu  Cu11  1  0.25000000  0.50000000  0.03971000  1.0
  Cu  Cu12  1  0.50000000  0.00515000  0.95825000  1.0
  Cu  Cu13  1  0.00000000  0.00608000  0.95820000  1.0
  Cu  Cu14  1  0.25063000  0.52471000  0.88651000  1.0
  Cu  Cu15  1  0.74937000  0.52471000  0.88651000  1.0
  Si  Si16  1  0.00000000  0.75000000  0.03971000  1.0
  Si  Si17  1  0.50000000  0.75000000  0.03971000  1.0
  Si  Si18  1  0.25000000  0.25000000  0.11914000  1.0
  Si  Si19  1  0.75000000  0.25000000  0.11914000  1.0
  Si  Si20  1  0.50000000  0.75125000  0.88122000  1.0
  Si  Si21  1  0.00000000  0.75320000  0.88225000  1.0
  Si  Si22  1  0.75005000  0.24839000  0.95882000  1.0
  Si  Si23  1  0.24995000  0.24839000  0.95882000  1.0
  Pd  Pd24  1  0.25000000  0.00000000  0.03971000  1.0
  Pd  Pd25  1  0.75000000  0.00000000  0.03971000  1.0
  Pd  Pd26  1  0.50000000  0.50000000  0.11914000  1.0
  Pd  Pd27  1  0.00000000  0.50000000  0.11914000  1.0
  Pd  Pd28  1  0.74884000  0.98183000  0.88606000  1.0
  Pd  Pd29  1  0.25116000  0.98183000  0.88606000  1.0
  Pd  Pd30  1  0.00000000  0.48950000  0.95720000  1.0
  Pd  Pd31  1  0.50000000  0.49239000  0.95833000  1.0
  C  C32  1  0.00000000  0.25947000  0.78157000  1.0
  O  O33  1  0.00000000  0.25658000  0.73825000  1.0
