# generated using pymatgen
data_Li8Cu8Si8Pd8CO
_symmetry_space_group_name_H-M   Pm
_cell_length_a   5.89837000
_cell_length_b   8.34156000
_cell_length_c   26.25620000
_cell_angle_alpha   90.00000000
_cell_angle_beta   90.00000000
_cell_angle_gamma   90.00000000
_symmetry_Int_Tables_number   6
_chemical_formula_structural   Li8Cu8Si8Pd8CO
_chemical_formula_sum   'Li8 Cu8 Si8 Pd8 C1 O1'
_cell_volume   1291.84724047
_cell_formula_units_Z   1
loop_
 _symmetry_equiv_pos_site_id
 _symmetry_equiv_pos_as_xyz
  1  'x, y, z'
  2  'x, -y, z'
loop_
 _atom_site_type_symbol
 _atom_site_label
 _atom_site_symmetry_multiplicity
 _atom_site_fract_x
 _atom_site_fract_y
 _atom_site_fract_z
 _atom_site_occupancy
  Li  Li0  2  0.74944000  0.24950000  0.03540000  1.0
  Li  Li1  2  0.75000000  0.25000000  0.88086000  1.0
  Li  Li2  1  0.25000000  0.00000000  0.96029000  1.0
  Li  Li3  1  0.25000000  0.50000000  0.96029000  1.0
  Li  Li4  1  0.25523000  0.50000000  0.13432000  1.0
  Li  Li5  1  0.25556000  0.00000000  0.13739000  1.0
  Si  Si6  2  0.24839000  0.24995000  0.04118000  1.0
  Si  Si7  2  0.25000000  0.25000000  0.88086000  1.0
  Cu  Cu8  2  0.50000000  0.25000000  0.96029000  1.0
  Cu  Cu9  2  0.52471000  0.25063000  0.11349000  1.0
  Cu  Cu10  1  0.00000000  0.00000000  0.88086000  1.0
  Cu  Cu11  1  0.00000000  0.50000000  0.88086000  1.0
  Cu  Cu12  1  0.00515000  0.50000000  0.04175000  1.0
  Cu  Cu13  1  0.00608000  0.00000000  0.04180000  1.0
  Si  Si14  1  0.75000000  0.00000000  0.96029000  1.0
  Si  Si15  1  0.75000000  0.50000000  0.96029000  1.0
  Si  Si16  1  0.75125000  0.50000000  0.11878000  1.0
  Si  Si17  1  0.75320000  0.00000000  0.11775000  1.0
  Pd  Pd18  2  0.00000000  0.25000000  0.96029000  1.0
  Pd  Pd19  2  0.98183000  0.25116000  0.11394000  1.0
  Pd  Pd20  1  0.48950000  0.00000000  0.04280000  1.0
  Pd  Pd21  1  0.49239000  0.50000000  0.04167000  1.0
  Pd  Pd22  1  0.50000000  0.00000000  0.88086000  1.0
  Pd  Pd23  1  0.50000000  0.50000000  0.88086000  1.0
  C  C24  1  0.25947000  0.00000000  0.21843000  1.0
  O  O25  1  0.25658000  0.00000000  0.26175000  1.0
