# generated using pymatgen
data_Li16Mg8In8CO
_symmetry_space_group_name_H-M   'P 1'
_cell_length_a   9.55351000
_cell_length_b   6.75535000
_cell_length_c   27.16510000
_cell_angle_alpha   90.00000000
_cell_angle_beta   90.00000000
_cell_angle_gamma   90.00000000
_symmetry_Int_Tables_number   1
_chemical_formula_structural   Li16Mg8In8CO
_chemical_formula_sum   'Li16 Mg8 In8 C1 O1'
_cell_volume   1753.16231087
_cell_formula_units_Z   1
loop_
 _symmetry_equiv_pos_site_id
 _symmetry_equiv_pos_as_xyz
  1  'x, y, z'
loop_
 _atom_site_type_symbol
 _atom_site_label
 _atom_site_symmetry_multiplicity
 _atom_site_fract_x
 _atom_site_fract_y
 _atom_site_fract_z
 _atom_site_occupancy
  Li  Li0  1  0.00000000  0.75000000  0.04396000  1.0
  Li  Li1  1  0.50000000  0.25000000  0.04396000  1.0
  Li  Li2  1  0.00000000  0.25000000  0.04396000  1.0
  Li  Li3  1  0.50000000  0.75000000  0.04396000  1.0
  Li  Li4  1  0.75000000  0.25000000  0.13188000  1.0
  Li  Li5  1  0.25000000  0.75000000  0.13188000  1.0
  Li  Li6  1  0.75000000  0.75000000  0.13188000  1.0
  Li  Li7  1  0.25000000  0.25000000  0.13188000  1.0
  Li  Li8  1  0.50297000  0.76142000  0.86491000  1.0
  Li  Li9  1  0.99702000  0.23857000  0.86491000  1.0
  Li  Li10  1  0.50297000  0.23858000  0.86491000  1.0
  Li  Li11  1  0.99702000  0.76143000  0.86491000  1.0
  Li  Li12  1  0.25000000  0.25176000  0.95764000  1.0
  Li  Li13  1  0.75000000  0.74677000  0.95783000  1.0
  Li  Li14  1  0.25000000  0.74824000  0.95764000  1.0
  Li  Li15  1  0.75000000  0.25323000  0.95783000  1.0
  Mg  Mg16  1  0.00000000  0.00000000  0.13188000  1.0
  Mg  Mg17  1  0.25000000  0.50000000  0.04396000  1.0
  Mg  Mg18  1  0.75000000  0.50000000  0.04396000  1.0
  Mg  Mg19  1  0.50000000  0.00000000  0.13188000  1.0
  Mg  Mg20  1  0.50758000  0.00000000  0.95613000  1.0
  Mg  Mg21  1  0.75000000  0.50000000  0.86964000  1.0
  Mg  Mg22  1  0.25000000  0.50000000  0.87292000  1.0
  Mg  Mg23  1  0.99241000  0.00000000  0.95613000  1.0
  In  In24  1  0.75000000  0.00000000  0.04396000  1.0
  In  In25  1  0.00000000  0.50000000  0.13188000  1.0
  In  In26  1  0.25000000  0.00000000  0.04396000  1.0
  In  In27  1  0.50000000  0.50000000  0.13188000  1.0
  In  In28  1  0.25001000  0.00000000  0.87366000  1.0
  In  In29  1  0.50182000  0.50000000  0.95300000  1.0
  In  In30  1  0.74994000  0.00000000  0.86932000  1.0
  In  In31  1  0.99818000  0.50000000  0.95300000  1.0
  C  C32  1  0.25000000  0.00000000  0.78849000  1.0
  O  O33  1  0.25001000  0.00000000  0.74596000  1.0
