# generated using pymatgen
data_Li16Mg8In8CO
_symmetry_space_group_name_H-M   Pm
_cell_length_a   9.55351000
_cell_length_b   6.75535000
_cell_length_c   27.16510000
_cell_angle_alpha   90.00000000
_cell_angle_beta   90.00000000
_cell_angle_gamma   90.00000000
_symmetry_Int_Tables_number   6
_chemical_formula_structural   Li16Mg8In8CO
_chemical_formula_sum   'Li16 Mg8 In8 C1 O1'
_cell_volume   1753.16231087
_cell_formula_units_Z   1
loop_
 _symmetry_equiv_pos_site_id
 _symmetry_equiv_pos_as_xyz
  1  'x, y, z'
  2  'x, -y, z'
loop_
 _atom_site_type_symbol
 _atom_site_label
 _atom_site_symmetry_multiplicity
 _atom_site_fract_x
 _atom_site_fract_y
 _atom_site_fract_z
 _atom_site_occupancy
  Li  Li0  2  0.00000000  0.25000000  0.95604000  1.0
  Li  Li1  2  0.25000000  0.25000000  0.86812000  1.0
  Li  Li2  2  0.25000000  0.25176000  0.04236000  1.0
  Li  Li3  2  0.50000000  0.25000000  0.95604000  1.0
  Li  Li4  2  0.50297000  0.23858000  0.13509000  1.0
  Li  Li5  2  0.75000000  0.25000000  0.86812000  1.0
  Li  Li6  2  0.75000000  0.25323000  0.04217000  1.0
  Li  Li7  2  0.99702000  0.23857000  0.13509000  1.0
  Mg  Mg8  1  0.00000000  0.00000000  0.86812000  1.0
  Mg  Mg9  1  0.25000000  0.50000000  0.12708000  1.0
  Mg  Mg10  1  0.25000000  0.50000000  0.95604000  1.0
  Mg  Mg11  1  0.50000000  0.00000000  0.86812000  1.0
  Mg  Mg12  1  0.50758000  0.00000000  0.04387000  1.0
  Mg  Mg13  1  0.75000000  0.50000000  0.13036000  1.0
  Mg  Mg14  1  0.75000000  0.50000000  0.95604000  1.0
  Mg  Mg15  1  0.99241000  0.00000000  0.04387000  1.0
  In  In16  1  0.00000000  0.50000000  0.86812000  1.0
  In  In17  1  0.25000000  0.00000000  0.95604000  1.0
  In  In18  1  0.25001000  0.00000000  0.12634000  1.0
  In  In19  1  0.50000000  0.50000000  0.86812000  1.0
  In  In20  1  0.50182000  0.50000000  0.04700000  1.0
  In  In21  1  0.74994000  0.00000000  0.13068000  1.0
  In  In22  1  0.75000000  0.00000000  0.95604000  1.0
  In  In23  1  0.99818000  0.50000000  0.04700000  1.0
  C  C24  1  0.25000000  0.00000000  0.21151000  1.0
  O  O25  1  0.25001000  0.00000000  0.25404000  1.0
