# generated using pymatgen
data_Li4Y4In4Cu4C
_symmetry_space_group_name_H-M   'P 1'
_cell_length_a   6.68415000
_cell_length_b   6.68415000
_cell_length_c   25.01310000
_cell_angle_alpha   90.00000000
_cell_angle_beta   90.00000000
_cell_angle_gamma   90.00000000
_symmetry_Int_Tables_number   1
_chemical_formula_structural   Li4Y4In4Cu4C
_chemical_formula_sum   'Li4 Y4 In4 Cu4 C1'
_cell_volume   1117.53181054
_cell_formula_units_Z   1
loop_
 _symmetry_equiv_pos_site_id
 _symmetry_equiv_pos_as_xyz
  1  'x, y, z'
loop_
 _atom_site_type_symbol
 _atom_site_label
 _atom_site_symmetry_multiplicity
 _atom_site_fract_x
 _atom_site_fract_y
 _atom_site_fract_z
 _atom_site_occupancy
  Li  Li0  1  0.47271000  0.97192000  0.86532000  1
  Li  Li1  1  0.00000000  0.00000000  0.03340000  1
  Li  Li2  1  0.50000000  0.50000000  0.03340000  1
  Li  Li3  1  0.02808000  0.52729000  0.86532000  1
  Y  Y4  1  0.24973000  0.24974000  0.96161000  1
  Y  Y5  1  0.75000000  0.25000000  0.10021000  1
  Y  Y6  1  0.25000000  0.75000000  0.10021000  1
  Y  Y7  1  0.75026000  0.75027000  0.96161000  1
  In  In8  1  0.25034000  0.74966000  0.97588000  1
  In  In9  1  0.75000000  0.75000000  0.10021000  1
  In  In10  1  0.25000000  0.25000000  0.10021000  1
  In  In11  1  0.74976000  0.25024000  0.94459000  1
  Cu  Cu12  1  0.05451500  0.94548500  0.89510000  1
  Cu  Cu13  1  0.50000000  1.00000000  0.03340000  1
  Cu  Cu14  1  0.00000000  0.50000000  0.03340000  1
  Cu  Cu15  1  0.44775000  0.55225000  0.89541000  1
  C  C16  1  0.25140000  0.74860000  0.87760000  1
