data_image0
_chemical_formula_structural       Li8Hf8Sn8Pd8C
_chemical_formula_sum              "Li8 Hf8 Sn8 Pd8 C1"
_cell_length_a       6.67688
_cell_length_b       9.44254
_cell_length_c       27.0819
_cell_angle_alpha    90
_cell_angle_beta     90
_cell_angle_gamma    90

_space_group_name_H-M_alt    "P 1"
_space_group_IT_number       1

loop_
  _space_group_symop_operation_xyz
  'x, y, z'

loop_
  _atom_site_type_symbol
  _atom_site_label
  _atom_site_symmetry_multiplicity
  _atom_site_fract_x
  _atom_site_fract_y
  _atom_site_fract_z
  _atom_site_occupancy
  Li  Li1       1.0  0.00000  0.25000  0.95642  1.0000
  Li  Li2       1.0  0.00000  0.75000  0.95642  1.0000
  Li  Li3       1.0  0.50000  0.50000  0.86925  1.0000
  Li  Li4       1.0  0.50000  0.00000  0.86925  1.0000
  Li  Li5       1.0  0.96251  0.75000  0.14825  1.0000
  Li  Li6       1.0  0.97127  0.25000  0.16314  1.0000
  Li  Li7       1.0  0.51234  0.99892  0.03846  1.0000
  Li  Li8       1.0  0.51233  0.50108  0.03846  1.0000
  Hf  Hf1       1.0  0.00000  0.00000  0.86925  1.0000
  Hf  Hf2       1.0  0.00000  0.50000  0.86925  1.0000
  Hf  Hf3       1.0  0.50000  0.75000  0.95642  1.0000
  Hf  Hf4       1.0  0.50000  0.25000  0.95642  1.0000
  Hf  Hf5       1.0  0.06676  0.49898  0.06650  1.0000
  Hf  Hf6       1.0  0.06676  0.00102  0.06650  1.0000
  Hf  Hf7       1.0  0.40665  0.25000  0.11950  1.0000
  Hf  Hf8       1.0  0.42846  0.75000  0.11429  1.0000
  Sn  Sn1       1.0  0.25000  0.00000  0.95642  1.0000
  Sn  Sn2       1.0  0.25000  0.50000  0.95642  1.0000
  Sn  Sn3       1.0  0.75000  0.25000  0.86925  1.0000
  Sn  Sn4       1.0  0.75000  0.75000  0.86925  1.0000
  Sn  Sn5       1.0  0.26160  0.50912  0.16373  1.0000
  Sn  Sn6       1.0  0.26160  0.99088  0.16373  1.0000
  Sn  Sn7       1.0  0.78319  0.75000  0.05056  1.0000
  Sn  Sn8       1.0  0.77463  0.25000  0.04220  1.0000
  Pd  Pd1       1.0  0.75000  0.00000  0.95642  1.0000
  Pd  Pd2       1.0  0.75000  0.50000  0.95642  1.0000
  Pd  Pd3       1.0  0.25000  0.25000  0.86925  1.0000
  Pd  Pd4       1.0  0.25000  0.75000  0.86925  1.0000
  Pd  Pd5       1.0  0.71500  0.49923  0.11701  1.0000
  Pd  Pd6       1.0  0.71499  0.00077  0.11701  1.0000
  Pd  Pd7       1.0  0.22116  0.75000  0.03181  1.0000
  Pd  Pd8       1.0  0.22856  0.25000  0.03076  1.0000
  C   C1        1.0  0.71091  0.25000  0.12314  1.0000
