data_image0
_chemical_formula_structural       Li8Al8Ga8Pd8C
_chemical_formula_sum              "Li8 Al8 Ga8 Pd8 C1"
_cell_length_a       6.14517
_cell_length_b       8.69058
_cell_length_c       26.5179
_cell_angle_alpha    90
_cell_angle_beta     90
_cell_angle_gamma    90

_space_group_name_H-M_alt    "P 1"
_space_group_IT_number       1

loop_
  _space_group_symop_operation_xyz
  'x, y, z'

loop_
  _atom_site_type_symbol
  _atom_site_label
  _atom_site_symmetry_multiplicity
  _atom_site_fract_x
  _atom_site_fract_y
  _atom_site_fract_z
  _atom_site_occupancy
  Li  Li1       1.0  0.75000  0.00000  0.95903  1.0000
  Li  Li2       1.0  0.75000  0.50000  0.95903  1.0000
  Li  Li3       1.0  0.25000  0.25000  0.87710  1.0000
  Li  Li4       1.0  0.25000  0.75000  0.87710  1.0000
  Li  Li5       1.0  0.72850  0.50000  0.14878  1.0000
  Li  Li6       1.0  0.80661  0.00000  0.17220  1.0000
  Li  Li7       1.0  0.24093  0.75202  0.04495  1.0000
  Li  Li8       1.0  0.24093  0.24798  0.04495  1.0000
  Al  Al1       1.0  0.00000  0.00000  0.87710  1.0000
  Al  Al2       1.0  0.00000  0.50000  0.87710  1.0000
  Al  Al3       1.0  0.50000  0.75000  0.95903  1.0000
  Al  Al4       1.0  0.50000  0.25000  0.95903  1.0000
  Al  Al5       1.0  0.98610  0.50000  0.04759  1.0000
  Al  Al6       1.0  0.96528  0.00000  0.04716  1.0000
  Al  Al7       1.0  0.53125  0.22690  0.12659  1.0000
  Al  Al8       1.0  0.53125  0.77310  0.12659  1.0000
  Ga  Ga1       1.0  0.00000  0.25000  0.95903  1.0000
  Ga  Ga2       1.0  0.00000  0.75000  0.95903  1.0000
  Ga  Ga3       1.0  0.50000  0.50000  0.87710  1.0000
  Ga  Ga4       1.0  0.50000  0.00000  0.87710  1.0000
  Ga  Ga5       1.0  0.99185  0.74070  0.13281  1.0000
  Ga  Ga6       1.0  0.99185  0.25930  0.13281  1.0000
  Ga  Ga7       1.0  0.51483  1.00000  0.04547  1.0000
  Ga  Ga8       1.0  0.50363  0.50000  0.04064  1.0000
  Pd  Pd1       1.0  0.25000  0.00000  0.95903  1.0000
  Pd  Pd2       1.0  0.25000  0.50000  0.95903  1.0000
  Pd  Pd3       1.0  0.75000  0.25000  0.87710  1.0000
  Pd  Pd4       1.0  0.75000  0.75000  0.87710  1.0000
  Pd  Pd5       1.0  0.26520  0.50000  0.11895  1.0000
  Pd  Pd6       1.0  0.18752  0.00000  0.12370  1.0000
  Pd  Pd7       1.0  0.74795  0.74379  0.03685  1.0000
  Pd  Pd8       1.0  0.74795  0.25621  0.03685  1.0000
  C   C1        1.0  0.52975  0.00000  0.12787  1.0000
