# generated using pymatgen
data_Li8Al8Ga8Pd8C
_symmetry_space_group_name_H-M   Pm
_cell_length_a   6.14517000
_cell_length_b   8.69058000
_cell_length_c   26.51790000
_cell_angle_alpha   90.00000000
_cell_angle_beta   90.00000000
_cell_angle_gamma   90.00000000
_symmetry_Int_Tables_number   6
_chemical_formula_structural   Li8Al8Ga8Pd8C
_chemical_formula_sum   'Li8 Al8 Ga8 Pd8 C1'
_cell_volume   1416.19087585
_cell_formula_units_Z   1
loop_
 _symmetry_equiv_pos_site_id
 _symmetry_equiv_pos_as_xyz
  1  'x, y, z'
  2  'x, -y, z'
loop_
 _atom_site_type_symbol
 _atom_site_label
 _atom_site_symmetry_multiplicity
 _atom_site_fract_x
 _atom_site_fract_y
 _atom_site_fract_z
 _atom_site_occupancy
  Li  Li0  2  0.24093000  0.24798000  0.04495000  1.0
  Li  Li1  2  0.25000000  0.25000000  0.87710000  1.0
  Li  Li2  1  0.72850000  0.50000000  0.14878000  1.0
  Li  Li3  1  0.75000000  0.00000000  0.95903000  1.0
  Li  Li4  1  0.75000000  0.50000000  0.95903000  1.0
  Li  Li5  1  0.80661000  0.00000000  0.17220000  1.0
  Al  Al6  2  0.50000000  0.25000000  0.95903000  1.0
  Al  Al7  2  0.53125000  0.22690000  0.12659000  1.0
  Al  Al8  1  0.00000000  0.00000000  0.87710000  1.0
  Al  Al9  1  0.00000000  0.50000000  0.87710000  1.0
  Al  Al10  1  0.96528000  0.00000000  0.04716000  1.0
  Al  Al11  1  0.98610000  0.50000000  0.04759000  1.0
  Ga  Ga12  2  0.00000000  0.25000000  0.95903000  1.0
  Ga  Ga13  2  0.99185000  0.25930000  0.13281000  1.0
  Ga  Ga14  1  0.50000000  0.00000000  0.87710000  1.0
  Ga  Ga15  1  0.50000000  0.50000000  0.87710000  1.0
  Ga  Ga16  1  0.50363000  0.50000000  0.04064000  1.0
  Ga  Ga17  1  0.51483000  0.00000000  0.04547000  1.0
  Pd  Pd18  2  0.74795000  0.25621000  0.03685000  1.0
  Pd  Pd19  2  0.75000000  0.25000000  0.87710000  1.0
  Pd  Pd20  1  0.18752000  0.00000000  0.12370000  1.0
  Pd  Pd21  1  0.25000000  0.00000000  0.95903000  1.0
  Pd  Pd22  1  0.25000000  0.50000000  0.95903000  1.0
  Pd  Pd23  1  0.26520000  0.50000000  0.11895000  1.0
  C  C24  1  0.52975000  0.00000000  0.12787000  1.0
