data_image0
_chemical_formula_structural       Cu12Pd4CO
_chemical_formula_sum              "Cu12 Pd4 C1 O1"
_cell_length_a       7.51398
_cell_length_b       5.31318
_cell_length_c       23.9849
_cell_angle_alpha    90
_cell_angle_beta     90
_cell_angle_gamma    90

_space_group_name_H-M_alt    "P 1"
_space_group_IT_number       1

loop_
  _space_group_symop_operation_xyz
  'x, y, z'

loop_
  _atom_site_type_symbol
  _atom_site_label
  _atom_site_symmetry_multiplicity
  _atom_site_fract_x
  _atom_site_fract_y
  _atom_site_fract_z
  _atom_site_occupancy
  Cu  Cu1       1.0  0.00000  0.50000  0.91693  1.0000
  Cu  Cu2       1.0  0.25000  0.75000  0.97231  1.0000
  Cu  Cu3       1.0  0.25000  0.25000  0.97231  1.0000
  Cu  Cu4       1.0  0.00062  0.00051  0.02756  1.0000
  Cu  Cu5       1.0  0.25000  0.24554  0.08383  1.0000
  Cu  Cu6       1.0  0.25000  0.76010  0.07695  1.0000
  Cu  Cu7       1.0  0.50000  0.50000  0.91693  1.0000
  Cu  Cu8       1.0  0.75000  0.75000  0.97231  1.0000
  Cu  Cu9       1.0  0.75000  0.25000  0.97231  1.0000
  Cu  Cu10      1.0  0.49938  0.00051  0.02756  1.0000
  Cu  Cu11      1.0  0.75000  0.24036  0.07735  1.0000
  Cu  Cu12      1.0  0.75000  0.75949  0.07771  1.0000
  Pd  Pd1       1.0  0.00000  0.00000  0.91693  1.0000
  Pd  Pd2       1.0  0.00077  0.49997  0.02814  1.0000
  Pd  Pd3       1.0  0.50000  0.00000  0.91693  1.0000
  Pd  Pd4       1.0  0.49923  0.49997  0.02814  1.0000
  C   C1        1.0  0.25000  0.23901  0.16166  1.0000
  O   O1        1.0  0.25000  0.25189  0.20938  1.0000
