# generated using pymatgen
data_Cu12Pd4CO
_symmetry_space_group_name_H-M   'P 1'
_cell_length_a   7.51398000
_cell_length_b   5.31318000
_cell_length_c   23.98490000
_cell_angle_alpha   90.00000000
_cell_angle_beta   90.00000000
_cell_angle_gamma   90.00000000
_symmetry_Int_Tables_number   1
_chemical_formula_structural   Cu12Pd4CO
_chemical_formula_sum   'Cu12 Pd4 C1 O1'
_cell_volume   957.55223892
_cell_formula_units_Z   1
loop_
 _symmetry_equiv_pos_site_id
 _symmetry_equiv_pos_as_xyz
  1  'x, y, z'
loop_
 _atom_site_type_symbol
 _atom_site_label
 _atom_site_symmetry_multiplicity
 _atom_site_fract_x
 _atom_site_fract_y
 _atom_site_fract_z
 _atom_site_occupancy
  Cu  Cu0  1  0.75000000  0.50000000  0.91693000  1.0
  Cu  Cu1  1  0.50000000  0.25000000  0.97231000  1.0
  Cu  Cu2  1  0.50000000  0.75000000  0.97231000  1.0
  Cu  Cu3  1  0.74938000  0.99949000  0.02756000  1.0
  Cu  Cu4  1  0.50000000  0.75446000  0.08383000  1.0
  Cu  Cu5  1  0.50000000  0.23990000  0.07695000  1.0
  Cu  Cu6  1  0.25000000  0.50000000  0.91693000  1.0
  Cu  Cu7  1  0.00000000  0.25000000  0.97231000  1.0
  Cu  Cu8  1  0.00000000  0.75000000  0.97231000  1.0
  Cu  Cu9  1  0.25062000  0.99949000  0.02756000  1.0
  Cu  Cu10  1  0.00000000  0.75964000  0.07735000  1.0
  Cu  Cu11  1  0.00000000  0.24051000  0.07771000  1.0
  Pd  Pd12  1  0.75000000  0.00000000  0.91693000  1.0
  Pd  Pd13  1  0.74923000  0.50003000  0.02814000  1.0
  Pd  Pd14  1  0.25000000  0.00000000  0.91693000  1.0
  Pd  Pd15  1  0.25077000  0.50003000  0.02814000  1.0
  C  C16  1  0.50000000  0.76099000  0.16166000  1.0
  O  O17  1  0.50000000  0.74811000  0.20938000  1.0
