# generated using pymatgen
data_ZnPt
_symmetry_space_group_name_H-M   Pmma
_cell_length_a   4.09350000
_cell_length_b   3.57934000
_cell_length_c   26.14020000
_cell_angle_alpha   90.00000000
_cell_angle_beta   90.00000000
_cell_angle_gamma   90.00000000
_symmetry_Int_Tables_number   51
_chemical_formula_structural   ZnPt
_chemical_formula_sum   'Zn4 Pt4'
_cell_volume   383.00694991
_cell_formula_units_Z   4
loop_
 _symmetry_equiv_pos_site_id
 _symmetry_equiv_pos_as_xyz
  1  'x, y, z'
  2  '-x, -y, -z'
  3  '-x+1/2, -y, z'
  4  'x+1/2, y, -z'
  5  'x+1/2, -y, -z'
  6  '-x+1/2, y, z'
  7  '-x, y, -z'
  8  'x, -y, z'
loop_
 _atom_site_type_symbol
 _atom_site_label
 _atom_site_symmetry_multiplicity
 _atom_site_fract_x
 _atom_site_fract_y
 _atom_site_fract_z
 _atom_site_occupancy
  Zn  Zn0  2  0.25000000  0.50000000  0.03915000  1.0
  Zn  Zn1  2  0.25000000  0.50000000  0.88255000  1.0
  Pt  Pt2  2  0.25000000  0.00000000  0.11745000  1.0
  Pt  Pt3  2  0.25000000  0.00000000  0.96085000  1.0
