# generated using pymatgen
data_Li24Au8CO
_symmetry_space_group_name_H-M   Pmm2
_cell_length_a   6.35005000
_cell_length_b   8.98033000
_cell_length_c   26.73520000
_cell_angle_alpha   90.00000000
_cell_angle_beta   90.00000000
_cell_angle_gamma   90.00000000
_symmetry_Int_Tables_number   25
_chemical_formula_structural   Li24Au8CO
_chemical_formula_sum   'Li24 Au8 C1 O1'
_cell_volume   1524.58933776
_cell_formula_units_Z   1
loop_
 _symmetry_equiv_pos_site_id
 _symmetry_equiv_pos_as_xyz
  1  'x, y, z'
  2  '-x, -y, z'
  3  '-x, y, z'
  4  'x, -y, z'
loop_
 _atom_site_type_symbol
 _atom_site_label
 _atom_site_symmetry_multiplicity
 _atom_site_fract_x
 _atom_site_fract_y
 _atom_site_fract_z
 _atom_site_occupancy
  Li  Li0  4  0.25000000  0.25000000  0.95801000  1.0
  Li  Li1  4  0.26369000  0.24661000  0.13273000  1.0
  Li  Li2  2  0.24081000  0.00000000  0.03870000  1.0
  Li  Li3  2  0.25000000  0.00000000  0.87404000  1.0
  Li  Li4  2  0.25000000  0.50000000  0.87404000  1.0
  Li  Li5  2  0.25057000  0.50000000  0.03863000  1.0
  Li  Li6  2  0.50000000  0.24801000  0.04273000  1.0
  Li  Li7  2  0.50000000  0.25000000  0.87404000  1.0
  Li  Li8  1  0.00000000  0.00000000  0.12042000  1.0
  Li  Li9  1  0.00000000  0.00000000  0.95801000  1.0
  Li  Li10  1  0.00000000  0.50000000  0.11852000  1.0
  Li  Li11  1  0.00000000  0.50000000  0.95801000  1.0
  Au  Au12  2  0.00000000  0.25000000  0.87404000  1.0
  Au  Au13  2  0.00000000  0.25176000  0.04724000  1.0
  Au  Au14  1  0.50000000  0.00000000  0.11459000  1.0
  Au  Au15  1  0.50000000  0.00000000  0.95801000  1.0
  Au  Au16  1  0.50000000  0.50000000  0.11806000  1.0
  Au  Au17  1  0.50000000  0.50000000  0.95801000  1.0
  C  C18  1  0.00000000  0.00000000  0.19579000  1.0
  O  O19  1  0.00000000  0.00000000  0.23904000  1.0
