# generated using pymatgen
data_Hf8Ni16Sn8CO
_symmetry_space_group_name_H-M   'P 1'
_cell_length_a   6.29417000
_cell_length_b   8.90130000
_cell_length_c   26.67600000
_cell_angle_alpha   90.00000000
_cell_angle_beta   90.00000000
_cell_angle_gamma   90.00000000
_symmetry_Int_Tables_number   1
_chemical_formula_structural   Hf8Ni16Sn8CO
_chemical_formula_sum   'Hf8 Ni16 Sn8 C1 O1'
_cell_volume   1494.55745665
_cell_formula_units_Z   1
loop_
 _symmetry_equiv_pos_site_id
 _symmetry_equiv_pos_as_xyz
  1  'x, y, z'
loop_
 _atom_site_type_symbol
 _atom_site_label
 _atom_site_symmetry_multiplicity
 _atom_site_fract_x
 _atom_site_fract_y
 _atom_site_fract_z
 _atom_site_occupancy
  Hf  Hf0  1  0.00000000  0.00000000  0.87487000  1.0
  Hf  Hf1  1  0.50000000  0.25000000  0.95829000  1.0
  Hf  Hf2  1  0.50000000  0.75000000  0.95829000  1.0
  Hf  Hf3  1  1.00000000  0.50000000  0.87487000  1.0
  Hf  Hf4  1  0.99913000  0.49986000  0.04254000  1.0
  Hf  Hf5  1  0.50068000  0.74819000  0.12395000  1.0
  Hf  Hf6  1  0.50065000  0.25154000  0.12390000  1.0
  Hf  Hf7  1  0.00221000  0.00004000  0.04244000  1.0
  Ni  Ni8  1  0.25000000  0.00000000  0.95829000  1.0
  Ni  Ni9  1  0.75000000  0.50000000  0.95829000  1.0
  Ni  Ni10  1  0.75000000  0.00000000  0.95829000  1.0
  Ni  Ni11  1  0.25000000  0.50000000  0.95829000  1.0
  Ni  Ni12  1  0.75000000  0.75000000  0.87487000  1.0
  Ni  Ni13  1  0.25000000  0.25000000  0.87487000  1.0
  Ni  Ni14  1  0.25000000  0.75000000  0.87487000  1.0
  Ni  Ni15  1  0.75000000  0.25000000  0.87487000  1.0
  Ni  Ni16  1  0.26697000  0.49990000  0.11979000  1.0
  Ni  Ni17  1  0.74801000  0.99984000  0.11746000  1.0
  Ni  Ni18  1  0.72960000  0.49987000  0.12016000  1.0
  Ni  Ni19  1  0.26680000  0.99975000  0.12995000  1.0
  Ni  Ni20  1  0.75289000  0.24816000  0.04409000  1.0
  Ni  Ni21  1  0.24523000  0.74950000  0.04537000  1.0
  Ni  Ni22  1  0.24596000  0.25042000  0.04537000  1.0
  Ni  Ni23  1  0.75363000  0.75171000  0.04401000  1.0
  Sn  Sn24  1  1.00000000  0.75000000  0.95829000  1.0
  Sn  Sn25  1  0.50000000  0.00000000  0.87487000  1.0
  Sn  Sn26  1  1.00000000  0.25000000  0.95829000  1.0
  Sn  Sn27  1  0.50000000  0.50000000  0.87487000  1.0
  Sn  Sn28  1  0.99506000  0.25352000  0.13267000  1.0
  Sn  Sn29  1  0.50006000  0.50022000  0.03893000  1.0
  Sn  Sn30  1  0.99497000  0.74619000  0.13274000  1.0
  Sn  Sn31  1  0.49413000  0.99977000  0.04092000  1.0
  C  C32  1  0.35051000  0.00002000  0.19300000  1.0
  O  O33  1  0.38968000  0.99991000  0.23571000  1.0
