# generated using pymatgen
data_ZnNi2Ge
_symmetry_space_group_name_H-M   Pm
_cell_length_a   5.88011000
_cell_length_b   5.88011000
_cell_length_c   24.41010000
_cell_angle_alpha   90.00000000
_cell_angle_beta   90.00000000
_cell_angle_gamma   90.00000000
_symmetry_Int_Tables_number   6
_chemical_formula_structural   ZnNi2Ge
_chemical_formula_sum   'Zn4 Ni8 Ge4'
_cell_volume   843.99613864
_cell_formula_units_Z   4
loop_
 _symmetry_equiv_pos_site_id
 _symmetry_equiv_pos_as_xyz
  1  'x, y, z'
  2  'x, -y, z'
loop_
 _atom_site_type_symbol
 _atom_site_label
 _atom_site_symmetry_multiplicity
 _atom_site_fract_x
 _atom_site_fract_y
 _atom_site_fract_z
 _atom_site_occupancy
  Zn  Zn0  1  0.00000000  0.00000000  0.08809000  1.0
  Zn  Zn1  1  0.00000000  0.50000000  0.96989000  1.0
  Zn  Zn2  1  0.50000000  0.00000000  0.96989000  1.0
  Zn  Zn3  1  0.50001000  0.50000000  0.08811000  1.0
  Ni  Ni4  2  0.25000000  0.25000000  0.90967000  1.0
  Ni  Ni5  2  0.25008000  0.25017000  0.03184000  1.0
  Ni  Ni6  2  0.74992000  0.25017000  0.03189000  1.0
  Ni  Ni7  2  0.75000000  0.25000000  0.90967000  1.0
  Ge  Ge8  1  0.00000000  0.00000000  0.96989000  1.0
  Ge  Ge9  1  0.50000000  0.50000000  0.96989000  1.0
  Ge  Ge10  1  0.50008000  0.00000000  0.09277000  1.0
  Ge  Ge11  1  0.99998000  0.50000000  0.09279000  1.0
