# generated using pymatgen
data_Li4Ga8Ir4CO
_symmetry_space_group_name_H-M   Cmm2
_cell_length_a   8.64705326
_cell_length_b   8.64705326
_cell_length_c   24.58580000
_cell_angle_alpha   90.00000000
_cell_angle_beta   90.00000000
_cell_angle_gamma   90.00000000
_symmetry_Int_Tables_number   35
_chemical_formula_structural   Li4Ga8Ir4CO
_chemical_formula_sum   'Li8 Ga16 Ir8 C2 O2'
_cell_volume   1838.31788582
_cell_formula_units_Z   2
loop_
 _symmetry_equiv_pos_site_id
 _symmetry_equiv_pos_as_xyz
  1  'x, y, z'
  2  '-x, -y, z'
  3  '-x, y, z'
  4  'x, -y, z'
  5  'x+1/2, y+1/2, z'
  6  '-x+1/2, -y+1/2, z'
  7  '-x+1/2, y+1/2, z'
  8  'x+1/2, -y+1/2, z'
loop_
 _atom_site_type_symbol
 _atom_site_label
 _atom_site_symmetry_multiplicity
 _atom_site_fract_x
 _atom_site_fract_y
 _atom_site_fract_z
 _atom_site_occupancy
  Li  Li0  4  0.00000000  0.25000000  0.90674000  1.0
  Li  Li1  4  0.25000000  0.00000000  0.03109000  1.0
  Ga  Ga2  4  0.25000000  0.25000000  0.09326000  1.0
  Ga  Ga3  4  0.25000000  0.25000000  0.96891000  1.0
  Ga  Ga4  2  0.00000000  0.00000000  0.09326000  1.0
  Ga  Ga5  2  0.00000000  0.00000000  0.96891000  1.0
  Ga  Ga6  2  0.00000000  0.50000000  0.09326000  1.0
  Ga  Ga7  2  0.00000000  0.50000000  0.96891000  1.0
  Ir  Ir8  4  0.00000000  0.25000000  0.03109000  1.0
  Ir  Ir9  4  0.25000000  0.00000000  0.90674000  1.0
  C  C10  2  0.00000000  0.50000000  0.17054000  1.0
  O  O11  2  0.00000000  0.50000000  0.21732000  1.0
