# generated using pymatgen
data_Li8Al8Pd8Pt8CO
_symmetry_space_group_name_H-M   'P 1'
_cell_length_a   8.57186000
_cell_length_b   6.06122000
_cell_length_c   26.42890000
_cell_angle_alpha   90.00000000
_cell_angle_beta   90.00000000
_cell_angle_gamma   90.00000000
_symmetry_Int_Tables_number   1
_chemical_formula_structural   Li8Al8Pd8Pt8CO
_chemical_formula_sum   'Li8 Al8 Pd8 Pt8 C1 O1'
_cell_volume   1373.13805906
_cell_formula_units_Z   1
loop_
 _symmetry_equiv_pos_site_id
 _symmetry_equiv_pos_as_xyz
  1  'x, y, z'
loop_
 _atom_site_type_symbol
 _atom_site_label
 _atom_site_symmetry_multiplicity
 _atom_site_fract_x
 _atom_site_fract_y
 _atom_site_fract_z
 _atom_site_occupancy
  Li  Li0  1  0.25000000  0.00000000  0.04054000  1.0
  Li  Li1  1  0.75000000  0.00000000  0.04054000  1.0
  Li  Li2  1  0.50000000  0.50000000  0.12163000  1.0
  Li  Li3  1  0.00000000  0.50000000  0.12163000  1.0
  Li  Li4  1  0.74466000  0.00033000  0.86334000  1.0
  Li  Li5  1  0.25534000  0.00033000  0.86334000  1.0
  Li  Li6  1  0.00000000  0.49943000  0.95987000  1.0
  Li  Li7  1  0.50000000  0.49839000  0.96086000  1.0
  Al  Al8  1  0.00000000  0.00000000  0.12163000  1.0
  Al  Al9  1  0.50000000  0.00000000  0.12163000  1.0
  Al  Al10  1  0.75000000  0.50000000  0.04054000  1.0
  Al  Al11  1  0.25000000  0.50000000  0.04054000  1.0
  Al  Al12  1  0.50000000  0.00290000  0.95852000  1.0
  Al  Al13  1  0.00000000  0.99737000  0.95891000  1.0
  Al  Al14  1  0.25368000  0.49880000  0.88099000  1.0
  Al  Al15  1  0.74632000  0.49880000  0.88099000  1.0
  Pd  Pd16  1  0.00000000  0.75000000  0.04054000  1.0
  Pd  Pd17  1  0.50000000  0.75000000  0.04054000  1.0
  Pd  Pd18  1  0.25000000  0.25000000  0.12163000  1.0
  Pd  Pd19  1  0.75000000  0.25000000  0.12163000  1.0
  Pd  Pd20  1  0.50000000  0.74362000  0.88095000  1.0
  Pd  Pd21  1  0.00000000  0.74024000  0.88112000  1.0
  Pd  Pd22  1  0.75595000  0.24479000  0.95908000  1.0
  Pd  Pd23  1  0.24405000  0.24479000  0.95908000  1.0
  Pt  Pt24  1  0.00000000  0.25000000  0.04054000  1.0
  Pt  Pt25  1  0.50000000  0.25000000  0.04054000  1.0
  Pt  Pt26  1  0.25000000  0.75000000  0.12163000  1.0
  Pt  Pt27  1  0.75000000  0.75000000  0.12163000  1.0
  Pt  Pt28  1  0.50000000  0.26168000  0.88176000  1.0
  Pt  Pt29  1  0.00000000  0.25139000  0.87510000  1.0
  Pt  Pt30  1  0.74995000  0.75437000  0.95925000  1.0
  Pt  Pt31  1  0.25005000  0.75437000  0.95925000  1.0
  C  C32  1  0.00000000  0.19910000  0.80374000  1.0
  O  O33  1  0.00000000  0.18350000  0.76002000  1.0
