# generated using pymatgen
data_Zr4Rh12C
_symmetry_space_group_name_H-M   Pm
_cell_length_a   5.62675000
_cell_length_b   7.95743000
_cell_length_c   24.22010000
_cell_angle_alpha   90.00000000
_cell_angle_beta   90.00000000
_cell_angle_gamma   90.00000000
_symmetry_Int_Tables_number   6
_chemical_formula_structural   Zr4Rh12C
_chemical_formula_sum   'Zr4 Rh12 C1'
_cell_volume   1084.44212274
_cell_formula_units_Z   1
loop_
 _symmetry_equiv_pos_site_id
 _symmetry_equiv_pos_as_xyz
  1  'x, y, z'
  2  'x, -y, z'
loop_
 _atom_site_type_symbol
 _atom_site_label
 _atom_site_symmetry_multiplicity
 _atom_site_fract_x
 _atom_site_fract_y
 _atom_site_fract_z
 _atom_site_occupancy
  Zr  Zr0  2  0.00033000  0.23659000  0.92273000  1.0
  Zr  Zr1  2  0.50000000  0.25000000  0.02904000  1.0
  Rh  Rh2  2  0.00000000  0.25000000  0.02904000  1.0
  Rh  Rh3  2  0.50053000  0.25391000  0.91397000  1.0
  Rh  Rh4  1  0.24452000  0.50000000  0.97001000  1.0
  Rh  Rh5  1  0.25000000  0.00000000  0.08712000  1.0
  Rh  Rh6  1  0.25000000  0.50000000  0.08712000  1.0
  Rh  Rh7  1  0.25283000  0.00000000  0.96909000  1.0
  Rh  Rh8  1  0.74726000  0.00000000  0.96896000  1.0
  Rh  Rh9  1  0.75000000  0.00000000  0.08712000  1.0
  Rh  Rh10  1  0.75000000  0.50000000  0.08712000  1.0
  Rh  Rh11  1  0.75551000  0.50000000  0.97002000  1.0
  C  C12  1  0.49982000  0.50000000  0.91217000  1.0
