# generated using pymatgen
data_Li16In8Au8C
_symmetry_space_group_name_H-M   'P 1'
_cell_length_a   9.34782000
_cell_length_b   6.60991000
_cell_length_c   27.01090000
_cell_angle_alpha   90.00000000
_cell_angle_beta   90.00000000
_cell_angle_gamma   90.00000000
_symmetry_Int_Tables_number   1
_chemical_formula_structural   Li16In8Au8C
_chemical_formula_sum   'Li16 In8 Au8 C1'
_cell_volume   1668.95621211
_cell_formula_units_Z   1
loop_
 _symmetry_equiv_pos_site_id
 _symmetry_equiv_pos_as_xyz
  1  'x, y, z'
loop_
 _atom_site_type_symbol
 _atom_site_label
 _atom_site_symmetry_multiplicity
 _atom_site_fract_x
 _atom_site_fract_y
 _atom_site_fract_z
 _atom_site_occupancy
  Li  Li0  1  0.75000000  1.00000000  0.04326000  1.0
  Li  Li1  1  0.00000000  0.50000000  0.12978000  1.0
  Li  Li2  1  0.25000000  1.00000000  0.04326000  1.0
  Li  Li3  1  0.50000000  0.50000000  0.12978000  1.0
  Li  Li4  1  0.25000000  0.25000000  0.12978000  1.0
  Li  Li5  1  0.75000000  0.25000000  0.12978000  1.0
  Li  Li6  1  0.50000000  0.75000000  0.04326000  1.0
  Li  Li7  1  0.00000000  0.75000000  0.04326000  1.0
  Li  Li8  1  0.22481000  0.01995000  0.86685000  1.0
  Li  Li9  1  0.50000000  0.49378000  0.95835000  1.0
  Li  Li10  1  0.77519000  0.01995000  0.86685000  1.0
  Li  Li11  1  0.00000000  0.51384000  0.95848000  1.0
  Li  Li12  1  0.76057000  0.26576000  0.94974000  1.0
  Li  Li13  1  0.23943000  0.26576000  0.94974000  1.0
  Li  Li14  1  0.00000000  0.74364000  0.86149000  1.0
  Li  Li15  1  0.50000000  0.78939000  0.87172000  1.0
  In  In16  1  0.00000000  0.00000000  0.12978000  1.0
  In  In17  1  0.25000000  0.50000000  0.04326000  1.0
  In  In18  1  0.75000000  0.50000000  0.04326000  1.0
  In  In19  1  0.50000000  1.00000000  0.12978000  1.0
  In  In20  1  0.50000000  0.00406000  0.95928000  1.0
  In  In21  1  0.73108000  0.51265000  0.85420000  1.0
  In  In22  1  0.26892000  0.51265000  0.85420000  1.0
  In  In23  1  0.00000000  0.97273000  0.96122000  1.0
  Au  Au24  1  0.00000000  0.25000000  0.04326000  1.0
  Au  Au25  1  0.50000000  0.25000000  0.04326000  1.0
  Au  Au26  1  0.75000000  0.75000000  0.12978000  1.0
  Au  Au27  1  0.25000000  0.75000000  0.12978000  1.0
  Au  Au28  1  0.50000000  0.24443000  0.87527000  1.0
  Au  Au29  1  0.00000000  0.33703000  0.86848000  1.0
  Au  Au30  1  0.26314000  0.72528000  0.95148000  1.0
  Au  Au31  1  0.73686000  0.72528000  0.95148000  1.0
  C  C32  1  0.00000000  0.03518000  0.88169000  1.0
