# generated using pymatgen
data_Li16In8Au8C
_symmetry_space_group_name_H-M   Pm
_cell_length_a   6.60991000
_cell_length_b   9.34782000
_cell_length_c   27.01090000
_cell_angle_alpha   90.00000000
_cell_angle_beta   90.00000000
_cell_angle_gamma   90.00000000
_symmetry_Int_Tables_number   6
_chemical_formula_structural   Li16In8Au8C
_chemical_formula_sum   'Li16 In8 Au8 C1'
_cell_volume   1668.95621211
_cell_formula_units_Z   1
loop_
 _symmetry_equiv_pos_site_id
 _symmetry_equiv_pos_as_xyz
  1  'x, y, z'
  2  'x, -y, z'
loop_
 _atom_site_type_symbol
 _atom_site_label
 _atom_site_symmetry_multiplicity
 _atom_site_fract_x
 _atom_site_fract_y
 _atom_site_fract_z
 _atom_site_occupancy
  Li  Li0  2  -0.00000000  0.25000000  0.95674000  1.0
  Li  Li1  2  0.01995000  0.22481000  0.13315000  1.0
  Li  Li2  2  0.25000000  0.25000000  0.87022000  1.0
  Li  Li3  2  0.26576000  0.23943000  0.05026000  1.0
  Li  Li4  1  0.49378000  0.50000000  0.04165000  1.0
  Li  Li5  1  0.50000000  0.00000000  0.87022000  1.0
  Li  Li6  1  0.50000000  0.50000000  0.87022000  1.0
  Li  Li7  1  0.51384000  0.00000000  0.04152000  1.0
  Li  Li8  1  0.74364000  0.00000000  0.13851000  1.0
  Li  Li9  1  0.75000000  0.00000000  0.95674000  1.0
  Li  Li10  1  0.75000000  0.50000000  0.95674000  1.0
  Li  Li11  1  0.78939000  0.50000000  0.12828000  1.0
  In  In12  2  0.50000000  0.25000000  0.95674000  1.0
  In  In13  2  0.51265000  0.26892000  0.14580000  1.0
  In  In14  1  -0.00000000  0.50000000  0.87022000  1.0
  In  In15  1  0.00000000  0.00000000  0.87022000  1.0
  In  In16  1  0.00406000  0.50000000  0.04072000  1.0
  In  In17  1  0.97273000  0.00000000  0.03878000  1.0
  Au  Au18  2  0.72528000  0.26314000  0.04852000  1.0
  Au  Au19  2  0.75000000  0.25000000  0.87022000  1.0
  Au  Au20  1  0.24443000  0.50000000  0.12473000  1.0
  Au  Au21  1  0.25000000  0.00000000  0.95674000  1.0
  Au  Au22  1  0.25000000  0.50000000  0.95674000  1.0
  Au  Au23  1  0.33703000  0.00000000  0.13152000  1.0
  C  C24  1  0.03518000  0.00000000  0.11831000  1.0
