# generated using pymatgen
data_ScNi2Sn
_symmetry_space_group_name_H-M   Pmm2
_cell_length_a   4.46565500
_cell_length_b   6.31539000
_cell_length_c   26.69850000
_cell_angle_alpha   90.00000000
_cell_angle_beta   90.00000000
_cell_angle_gamma   90.00000000
_symmetry_Int_Tables_number   25
_chemical_formula_structural   ScNi2Sn
_chemical_formula_sum   'Sc4 Ni8 Sn4'
_cell_volume   752.96051971
_cell_formula_units_Z   4
loop_
 _symmetry_equiv_pos_site_id
 _symmetry_equiv_pos_as_xyz
  1  'x, y, z'
  2  '-x, -y, z'
  3  '-x, y, z'
  4  'x, -y, z'
loop_
 _atom_site_type_symbol
 _atom_site_label
 _atom_site_symmetry_multiplicity
 _atom_site_fract_x
 _atom_site_fract_y
 _atom_site_fract_z
 _atom_site_occupancy
  Sc  Sc0  1  0.00000000  0.00000000  0.12545000  1.0
  Sc  Sc1  1  0.00000000  0.00000000  0.95908500  1.0
  Sc  Sc2  1  0.50000000  0.50000000  0.04182000  1.0
  Sc  Sc3  1  0.50000000  0.50000000  0.87268000  1.0
  Ni  Ni4  2  0.00000000  0.23606500  0.88065000  1.0
  Ni  Ni5  2  0.00000000  0.25000000  0.04182000  1.0
  Ni  Ni6  2  0.50000000  0.25000000  0.12545000  1.0
  Ni  Ni7  2  0.50000000  0.25886000  0.95516000  1.0
  Sn  Sn8  1  0.00000000  0.50000000  0.12545000  1.0
  Sn  Sn9  1  0.00000000  0.50000000  0.95802500  1.0
  Sn  Sn10  1  0.50000000  0.00000000  0.04182000  1.0
  Sn  Sn11  1  0.50000000  0.00000000  0.87067000  1.0
