# generated using pymatgen
data_Y8Mn8In8Pd8C
_symmetry_space_group_name_H-M   'P 1'
_cell_length_a   9.69972000
_cell_length_b   6.85874000
_cell_length_c   27.27480000
_cell_angle_alpha   90.00000000
_cell_angle_beta   90.00000000
_cell_angle_gamma   90.00000000
_symmetry_Int_Tables_number   1
_chemical_formula_structural   Y8Mn8In8Pd8C
_chemical_formula_sum   'Y8 Mn8 In8 Pd8 C1'
_cell_volume   1814.53400918
_cell_formula_units_Z   1
loop_
 _symmetry_equiv_pos_site_id
 _symmetry_equiv_pos_as_xyz
  1  'x, y, z'
loop_
 _atom_site_type_symbol
 _atom_site_label
 _atom_site_symmetry_multiplicity
 _atom_site_fract_x
 _atom_site_fract_y
 _atom_site_fract_z
 _atom_site_occupancy
  Y  Y0  1  0.25000000  0.00000000  0.04445000  1.0
  Y  Y1  1  0.75000000  0.00000000  0.04445000  1.0
  Y  Y2  1  0.50000000  0.50000000  0.13336000  1.0
  Y  Y3  1  0.00000000  0.50000000  0.13336000  1.0
  Y  Y4  1  0.72078000  0.96862000  0.86515000  1.0
  Y  Y5  1  0.27922000  0.96862000  0.86515000  1.0
  Y  Y6  1  0.00000000  0.49669000  0.95221000  1.0
  Y  Y7  1  0.50000000  0.52213000  0.95178000  1.0
  Mn  Mn8  1  0.00000000  0.75000000  0.04445000  1.0
  Mn  Mn9  1  0.50000000  0.75000000  0.04445000  1.0
  Mn  Mn10  1  0.25000000  0.25000000  0.13336000  1.0
  Mn  Mn11  1  0.75000000  0.25000000  0.13336000  1.0
  Mn  Mn12  1  0.50000000  0.62784000  0.83357000  1.0
  Mn  Mn13  1  0.00000000  0.76421000  0.86046000  1.0
  Mn  Mn14  1  0.74525000  0.24064000  0.95206000  1.0
  Mn  Mn15  1  0.25475000  0.24064000  0.95206000  1.0
  In  In16  1  0.00000000  0.00000000  0.13336000  1.0
  In  In17  1  0.50000000  1.00000000  0.13336000  1.0
  In  In18  1  0.75000000  0.50000000  0.04445000  1.0
  In  In19  1  0.25000000  0.50000000  0.04445000  1.0
  In  In20  1  0.50000000  0.99891000  0.95852000  1.0
  In  In21  1  0.00000000  0.99097000  0.95591000  1.0
  In  In22  1  0.24111000  0.49040000  0.86408000  1.0
  In  In23  1  0.75889000  0.49040000  0.86408000  1.0
  Pd  Pd24  1  0.00000000  0.25000000  0.04445000  1.0
  Pd  Pd25  1  0.50000000  0.25000000  0.04445000  1.0
  Pd  Pd26  1  0.25000000  0.75000000  0.13336000  1.0
  Pd  Pd27  1  0.75000000  0.75000000  0.13336000  1.0
  Pd  Pd28  1  0.50000000  0.25780000  0.87441000  1.0
  Pd  Pd29  1  0.00000000  0.19310000  0.86892000  1.0
  Pd  Pd30  1  0.75220000  0.75659000  0.95761000  1.0
  Pd  Pd31  1  0.24780000  0.75659000  0.95761000  1.0
  C  C32  1  0.00000000  0.49603000  0.86167000  1.0
