# generated using pymatgen
data_Li16In8Ir8C
_symmetry_space_group_name_H-M   'P 1'
_cell_length_a   8.97987000
_cell_length_b   6.34973000
_cell_length_c   26.73490000
_cell_angle_alpha   90.00000000
_cell_angle_beta   90.00000000
_cell_angle_gamma   90.00000000
_symmetry_Int_Tables_number   1
_chemical_formula_structural   Li16In8Ir8C
_chemical_formula_sum   'Li16 In8 Ir8 C1'
_cell_volume   1524.41731254
_cell_formula_units_Z   1
loop_
 _symmetry_equiv_pos_site_id
 _symmetry_equiv_pos_as_xyz
  1  'x, y, z'
loop_
 _atom_site_type_symbol
 _atom_site_label
 _atom_site_symmetry_multiplicity
 _atom_site_fract_x
 _atom_site_fract_y
 _atom_site_fract_z
 _atom_site_occupancy
  Li  Li0  1  0.50000000  0.00000000  0.04199000  1.0
  Li  Li1  1  0.75000000  0.50000000  0.12596000  1.0
  Li  Li2  1  0.00000000  0.00000000  0.04199000  1.0
  Li  Li3  1  0.25000000  0.50000000  0.12596000  1.0
  Li  Li4  1  0.75000000  0.25000000  0.04199000  1.0
  Li  Li5  1  0.25000000  0.25000000  0.04199000  1.0
  Li  Li6  1  0.50000000  0.75000000  0.12596000  1.0
  Li  Li7  1  0.00000000  0.75000000  0.12596000  1.0
  Li  Li8  1  0.00000000  0.03135000  0.86329000  1.0
  Li  Li9  1  0.24662000  0.49756000  0.95560000  1.0
  Li  Li10  1  0.50000000  0.03169000  0.87442000  1.0
  Li  Li11  1  0.75338000  0.49756000  0.95560000  1.0
  Li  Li12  1  0.25246000  0.27533000  0.86546000  1.0
  Li  Li13  1  0.74754000  0.27533000  0.86546000  1.0
  Li  Li14  1  0.00000000  0.74869000  0.95714000  1.0
  Li  Li15  1  0.50000000  0.74730000  0.95829000  1.0
  In  In16  1  0.00000000  0.25000000  0.12596000  1.0
  In  In17  1  0.50000000  0.25000000  0.12596000  1.0
  In  In18  1  0.25000000  0.75000000  0.04199000  1.0
  In  In19  1  0.75000000  0.75000000  0.04199000  1.0
  In  In20  1  0.50000000  0.24535000  0.96096000  1.0
  In  In21  1  0.00000000  0.23154000  0.96228000  1.0
  In  In22  1  0.73834000  0.75117000  0.86890000  1.0
  In  In23  1  0.26166000  0.75117000  0.86890000  1.0
  Ir  Ir24  1  0.75000000  0.00000000  0.12596000  1.0
  Ir  Ir25  1  0.00000000  0.50000000  0.04199000  1.0
  Ir  Ir26  1  0.50000000  0.50000000  0.04199000  1.0
  Ir  Ir27  1  0.25000000  0.00000000  0.12596000  1.0
  Ir  Ir28  1  0.25048000  0.99637000  0.95358000  1.0
  Ir  Ir29  1  0.50000000  0.49737000  0.88064000  1.0
  Ir  Ir30  1  0.00000000  0.48805000  0.87817000  1.0
  Ir  Ir31  1  0.74952000  0.99637000  0.95358000  1.0
  C  C32  1  0.00000000  0.71421000  0.83761000  1.0
