# generated using pymatgen
data_ZrAl3
_symmetry_space_group_name_H-M   Pmm2
_cell_length_a   4.09711500
_cell_length_b   5.79419000
_cell_length_c   24.34560000
_cell_angle_alpha   90.00000000
_cell_angle_beta   90.00000000
_cell_angle_gamma   90.00000000
_symmetry_Int_Tables_number   25
_chemical_formula_structural   ZrAl3
_chemical_formula_sum   'Zr2 Al6'
_cell_volume   577.95146461
_cell_formula_units_Z   2
loop_
 _symmetry_equiv_pos_site_id
 _symmetry_equiv_pos_as_xyz
  1  'x, y, z'
  2  '-x, -y, z'
  3  '-x, y, z'
  4  'x, -y, z'
loop_
 _atom_site_type_symbol
 _atom_site_label
 _atom_site_symmetry_multiplicity
 _atom_site_fract_x
 _atom_site_fract_y
 _atom_site_fract_z
 _atom_site_occupancy
  Zr  Zr0  1  0.00000000  0.00000000  0.91075000  1.0
  Zr  Zr1  1  0.00000000  0.50000000  0.02971000  1.0
  Al  Al2  2  0.50000000  0.23961000  0.08739000  1.0
  Al  Al3  2  0.50000000  0.25000000  0.97025000  1.0
  Al  Al4  1  0.00000000  0.00000000  0.03578000  1.0
  Al  Al5  1  0.00000000  0.50000000  0.91075000  1.0
