# generated using pymatgen
data_Ti8Ga8Ni16C
_symmetry_space_group_name_H-M   'P 1'
_cell_length_a   8.36280000
_cell_length_b   5.91339000
_cell_length_c   26.27210000
_cell_angle_alpha   90.00000000
_cell_angle_beta   90.00000000
_cell_angle_gamma   90.00000000
_symmetry_Int_Tables_number   1
_chemical_formula_structural   Ti8Ga8Ni16C
_chemical_formula_sum   'Ti8 Ga8 Ni16 C1'
_cell_volume   1299.22096987
_cell_formula_units_Z   1
loop_
 _symmetry_equiv_pos_site_id
 _symmetry_equiv_pos_as_xyz
  1  'x, y, z'
loop_
 _atom_site_type_symbol
 _atom_site_label
 _atom_site_symmetry_multiplicity
 _atom_site_fract_x
 _atom_site_fract_y
 _atom_site_fract_z
 _atom_site_occupancy
  Ti  Ti0  1  0.00000000  0.00000000  0.11937000  1.0
  Ti  Ti1  1  0.25000000  0.50000000  0.03979000  1.0
  Ti  Ti2  1  0.75000000  0.50000000  0.03979000  1.0
  Ti  Ti3  1  0.50000000  0.00000000  0.11937000  1.0
  Ti  Ti4  1  0.50001000  0.00000000  0.96052000  1.0
  Ti  Ti5  1  0.74426000  0.50000000  0.88103000  1.0
  Ti  Ti6  1  0.25580000  0.50000000  0.88106000  1.0
  Ti  Ti7  1  0.00002000  0.00000000  0.95616000  1.0
  Ga  Ga8  1  0.75000000  0.00000000  0.03979000  1.0
  Ga  Ga9  1  0.00000000  0.50000000  0.11937000  1.0
  Ga  Ga10  1  0.25000000  0.00000000  0.03979000  1.0
  Ga  Ga11  1  0.50000000  0.50000000  0.11937000  1.0
  Ga  Ga12  1  0.25435000  0.00000000  0.87692000  1.0
  Ga  Ga13  1  0.49997000  0.50000000  0.96109000  1.0
  Ga  Ga14  1  0.74558000  0.00000000  0.87692000  1.0
  Ga  Ga15  1  0.00001000  0.50000000  0.96091000  1.0
  Ni  Ni16  1  0.00000000  0.75000000  0.03979000  1.0
  Ni  Ni17  1  0.50000000  0.25000000  0.03979000  1.0
  Ni  Ni18  1  0.00000000  0.25000000  0.03979000  1.0
  Ni  Ni19  1  0.50000000  0.75000000  0.03979000  1.0
  Ni  Ni20  1  0.75000000  0.25000000  0.11937000  1.0
  Ni  Ni21  1  0.25000000  0.75000000  0.11937000  1.0
  Ni  Ni22  1  0.75000000  0.75000000  0.11937000  1.0
  Ni  Ni23  1  0.25000000  0.25000000  0.11937000  1.0
  Ni  Ni24  1  0.50002000  0.75645000  0.88433000  1.0
  Ni  Ni25  1  0.99990000  0.29477000  0.87832000  1.0
  Ni  Ni26  1  0.50002000  0.24355000  0.88433000  1.0
  Ni  Ni27  1  0.99990000  0.70523000  0.87832000  1.0
  Ni  Ni28  1  0.25248000  0.25516000  0.95987000  1.0
  Ni  Ni29  1  0.74752000  0.74483000  0.95984000  1.0
  Ni  Ni30  1  0.25248000  0.74484000  0.95987000  1.0
  Ni  Ni31  1  0.74752000  0.25517000  0.95984000  1.0
  C  C32  1  0.99999000  0.00000000  0.86753000  1.0
