# generated using pymatgen
data_Li8Ga16Rh8C
_symmetry_space_group_name_H-M   'P 1'
_cell_length_a   6.12388000
_cell_length_b   8.66047000
_cell_length_c   26.49540000
_cell_angle_alpha   90.00000000
_cell_angle_beta   90.00000000
_cell_angle_gamma   90.00000000
_symmetry_Int_Tables_number   1
_chemical_formula_structural   Li8Ga16Rh8C
_chemical_formula_sum   'Li8 Ga16 Rh8 C1'
_cell_volume   1405.20153000
_cell_formula_units_Z   1
loop_
 _symmetry_equiv_pos_site_id
 _symmetry_equiv_pos_as_xyz
  1  'x, y, z'
loop_
 _atom_site_type_symbol
 _atom_site_label
 _atom_site_symmetry_multiplicity
 _atom_site_fract_x
 _atom_site_fract_y
 _atom_site_fract_z
 _atom_site_occupancy
  Li  Li0  1  0.00000000  0.00000000  0.87742000  1.0
  Li  Li1  1  0.50000000  0.25000000  0.95914000  1.0
  Li  Li2  1  0.50000000  0.75000000  0.95914000  1.0
  Li  Li3  1  0.00000000  0.50000000  0.87742000  1.0
  Li  Li4  1  0.00000000  0.50000000  0.03805000  1.0
  Li  Li5  1  0.50000000  0.75906000  0.13423000  1.0
  Li  Li6  1  0.50000000  0.24094000  0.13423000  1.0
  Li  Li7  1  0.00000000  0.00000000  0.03924000  1.0
  Ga  Ga8  1  0.25000000  0.00000000  0.95914000  1.0
  Ga  Ga9  1  0.75000000  0.50000000  0.95914000  1.0
  Ga  Ga10  1  0.75000000  0.00000000  0.95914000  1.0
  Ga  Ga11  1  0.25000000  0.50000000  0.95914000  1.0
  Ga  Ga12  1  0.75000000  0.75000000  0.87742000  1.0
  Ga  Ga13  1  0.25000000  0.25000000  0.87742000  1.0
  Ga  Ga14  1  0.25000000  0.75000000  0.87742000  1.0
  Ga  Ga15  1  0.75000000  0.25000000  0.87742000  1.0
  Ga  Ga16  1  0.23386000  0.50000000  0.12415000  1.0
  Ga  Ga17  1  0.79310000  0.00000000  0.12861000  1.0
  Ga  Ga18  1  0.76614000  0.50000000  0.12415000  1.0
  Ga  Ga19  1  0.20690000  0.00000000  0.12861000  1.0
  Ga  Ga20  1  0.74070000  0.24824000  0.03929000  1.0
  Ga  Ga21  1  0.25930000  0.75176000  0.03929000  1.0
  Ga  Ga22  1  0.25930000  0.24824000  0.03929000  1.0
  Ga  Ga23  1  0.74070000  0.75176000  0.03929000  1.0
  Rh  Rh24  1  0.00000000  0.75000000  0.95914000  1.0
  Rh  Rh25  1  0.50000000  0.00000000  0.87742000  1.0
  Rh  Rh26  1  0.00000000  0.25000000  0.95914000  1.0
  Rh  Rh27  1  0.50000000  0.50000000  0.87742000  1.0
  Rh  Rh28  1  0.00000000  0.25875000  0.11173000  1.0
  Rh  Rh29  1  0.50000000  0.50000000  0.04302000  1.0
  Rh  Rh30  1  0.00000000  0.74125000  0.11173000  1.0
  Rh  Rh31  1  0.50000000  0.00000000  0.04331000  1.0
  C  C32  1  0.50000000  0.00000000  0.14713000  1.0
