# generated using pymatgen
data_LiYSnGe
_symmetry_space_group_name_H-M   P1
_cell_length_a   6.05842000
_cell_length_b   9.43388000
_cell_length_c   24.54360000
_cell_angle_alpha   90.00000000
_cell_angle_beta   90.00000000
_cell_angle_gamma   90.00000000
_symmetry_Int_Tables_number   1
_chemical_formula_structural   LiYSnGe
_chemical_formula_sum   'Li4 Y4 Sn4 Ge4'
_cell_volume   1402.77491026
_cell_formula_units_Z   4
loop_
 _symmetry_equiv_pos_site_id
 _symmetry_equiv_pos_as_xyz
  1  'x, y, z'
loop_
 _atom_site_type_symbol
 _atom_site_label
 _atom_site_symmetry_multiplicity
 _atom_site_fract_x
 _atom_site_fract_y
 _atom_site_fract_z
 _atom_site_occupancy
  Li  Li0  1  0.25707000  0.25000000  0.90744000  1.0
  Li  Li1  1  0.25707000  0.75000000  0.90744000  1.0
  Li  Li2  1  0.72394000  0.75002000  0.02529000  1.0
  Li  Li3  1  0.72395000  0.24998000  0.02529000  1.0
  Y  Y4  1  0.00471000  0.00000000  0.96915000  1.0
  Y  Y5  1  0.00471000  0.50000000  0.96915000  1.0
  Y  Y6  1  0.50198000  0.50000000  0.09182000  1.0
  Y  Y7  1  0.50205000  0.00000000  0.09185000  1.0
  Sn  Sn8  1  0.22369000  0.25002000  0.04268000  1.0
  Sn  Sn9  1  0.22373000  0.74998000  0.04267000  1.0
  Sn  Sn10  1  0.75707000  0.25000000  0.90744000  1.0
  Sn  Sn11  1  0.75707000  0.75000000  0.90744000  1.0
  Ge  Ge12  1  0.00602000  0.99996000  0.09482000  1.0
  Ge  Ge13  1  0.00610000  0.50005000  0.09483000  1.0
  Ge  Ge14  1  0.50471000  0.00000000  0.96915000  1.0
  Ge  Ge15  1  0.50471000  0.50000000  0.96915000  1.0
