# generated using pymatgen
data_LiSnGePd
_symmetry_space_group_name_H-M   'P 1'
_cell_length_a   6.61012000
_cell_length_b   6.61012000
_cell_length_c   24.95760000
_cell_angle_alpha   90.00000000
_cell_angle_beta   90.00000000
_cell_angle_gamma   90.00000000
_symmetry_Int_Tables_number   1
_chemical_formula_structural   LiSnGePd
_chemical_formula_sum   'Li4 Sn4 Ge4 Pd4'
_cell_volume   1090.48954806
_cell_formula_units_Z   4
loop_
 _symmetry_equiv_pos_site_id
 _symmetry_equiv_pos_as_xyz
  1  'x, y, z'
loop_
 _atom_site_type_symbol
 _atom_site_label
 _atom_site_symmetry_multiplicity
 _atom_site_fract_x
 _atom_site_fract_y
 _atom_site_fract_z
 _atom_site_occupancy
  Li  Li0  1  0.75000000  0.25000000  0.96689000  1.0
  Li  Li1  1  0.75013000  0.74987000  0.09851000  1.0
  Li  Li2  1  0.24993000  0.25012000  0.09834000  1.0
  Li  Li3  1  0.25000000  0.75000000  0.96689000  1.0
  Sn  Sn4  1  0.00000000  0.50000000  0.90068000  1.0
  Sn  Sn5  1  0.00040000  0.00048000  0.02714000  1.0
  Sn  Sn6  1  0.49959000  0.49953000  0.02714000  1.0
  Sn  Sn7  1  0.50000000  0.00000000  0.90068000  1.0
  Ge  Ge8  1  0.00000000  0.00000000  0.90068000  1.0
  Ge  Ge9  1  0.00009000  0.50038000  0.03466000  1.0
  Ge  Ge10  1  0.49989000  0.99961000  0.03468000  1.0
  Ge  Ge11  1  0.50000000  0.50000000  0.90068000  1.0
  Pd  Pd12  1  0.25000000  0.25000000  0.96689000  1.0
  Pd  Pd13  1  0.24993000  0.74993000  0.07956000  1.0
  Pd  Pd14  1  0.75002000  0.25003000  0.07963000  1.0
  Pd  Pd15  1  0.75000000  0.75000000  0.96689000  1.0
