data_image0
_chemical_formula_structural       Li8Si8Ni16C
_chemical_formula_sum              "Li8 Si8 Ni16 C1"
_cell_length_a       5.57854
_cell_length_b       7.88925
_cell_length_c       25.9169
_cell_angle_alpha    90
_cell_angle_beta     90
_cell_angle_gamma    90

_space_group_name_H-M_alt    "P 1"
_space_group_IT_number       1

loop_
  _space_group_symop_operation_xyz
  'x, y, z'

loop_
  _atom_site_type_symbol
  _atom_site_label
  _atom_site_symmetry_multiplicity
  _atom_site_fract_x
  _atom_site_fract_y
  _atom_site_fract_z
  _atom_site_occupancy
  Li  Li1       1.0  0.00000  0.00000  0.88585  1.0000
  Li  Li2       1.0  0.50000  0.25000  0.96195  1.0000
  Li  Li3       1.0  0.50000  0.75000  0.96195  1.0000
  Li  Li4       1.0  0.00000  0.50000  0.88585  1.0000
  Li  Li5       1.0  0.00018  0.49973  0.03325  1.0000
  Li  Li6       1.0  0.50018  0.73526  0.14140  1.0000
  Li  Li7       1.0  0.50012  0.26481  0.14141  1.0000
  Li  Li8       1.0  0.00045  0.00036  0.03461  1.0000
  Si  Si1       1.0  0.00000  0.75000  0.96195  1.0000
  Si  Si2       1.0  0.50000  0.00000  0.88585  1.0000
  Si  Si3       1.0  0.00000  0.25000  0.96195  1.0000
  Si  Si4       1.0  0.50000  0.50000  0.88585  1.0000
  Si  Si5       1.0  0.00003  0.25703  0.11186  1.0000
  Si  Si6       1.0  0.50012  0.50009  0.03821  1.0000
  Si  Si7       1.0  0.00036  0.74318  0.11174  1.0000
  Si  Si8       1.0  0.50013  0.99985  0.03671  1.0000
  Ni  Ni1       1.0  0.25000  0.00000  0.96195  1.0000
  Ni  Ni2       1.0  0.75000  0.50000  0.96195  1.0000
  Ni  Ni3       1.0  0.75000  0.00000  0.96195  1.0000
  Ni  Ni4       1.0  0.25000  0.50000  0.96195  1.0000
  Ni  Ni5       1.0  0.75000  0.75000  0.88585  1.0000
  Ni  Ni6       1.0  0.25000  0.25000  0.88585  1.0000
  Ni  Ni7       1.0  0.25000  0.75000  0.88585  1.0000
  Ni  Ni8       1.0  0.75000  0.25000  0.88585  1.0000
  Ni  Ni9       1.0  0.23247  0.50004  0.10693  1.0000
  Ni  Ni10      1.0  0.77302  0.99994  0.11309  1.0000
  Ni  Ni11      1.0  0.76763  0.50001  0.10689  1.0000
  Ni  Ni12      1.0  0.22760  0.99998  0.11321  1.0000
  Ni  Ni13      1.0  0.74297  0.24620  0.03939  1.0000
  Ni  Ni14      1.0  0.25709  0.75373  0.03923  1.0000
  Ni  Ni15      1.0  0.25711  0.24621  0.03946  1.0000
  Ni  Ni16      1.0  0.74406  0.75398  0.03922  1.0000
  C   C1        1.0  0.50055  0.00000  0.14543  1.0000
