# generated using pymatgen
data_Li8Si8Ni16C
_symmetry_space_group_name_H-M   P1
_cell_length_a   5.57854000
_cell_length_b   7.88925000
_cell_length_c   25.91690000
_cell_angle_alpha   90.00000000
_cell_angle_beta   90.00000000
_cell_angle_gamma   90.00000000
_symmetry_Int_Tables_number   1
_chemical_formula_structural   Li8Si8Ni16C
_chemical_formula_sum   'Li8 Si8 Ni16 C1'
_cell_volume   1140.61564179
_cell_formula_units_Z   1
loop_
 _symmetry_equiv_pos_site_id
 _symmetry_equiv_pos_as_xyz
  1  'x, y, z'
loop_
 _atom_site_type_symbol
 _atom_site_label
 _atom_site_symmetry_multiplicity
 _atom_site_fract_x
 _atom_site_fract_y
 _atom_site_fract_z
 _atom_site_occupancy
  Li  Li0  1  0.00000000  0.00000000  0.88585000  1.0
  Li  Li1  1  0.00000000  0.50000000  0.88585000  1.0
  Li  Li2  1  0.00018000  0.49973000  0.03325000  1.0
  Li  Li3  1  0.00045000  0.00036000  0.03461000  1.0
  Li  Li4  1  0.50000000  0.25000000  0.96195000  1.0
  Li  Li5  1  0.50000000  0.75000000  0.96195000  1.0
  Li  Li6  1  0.50012000  0.26481000  0.14141000  1.0
  Li  Li7  1  0.50018000  0.73526000  0.14140000  1.0
  Si  Si8  1  0.00000000  0.25000000  0.96195000  1.0
  Si  Si9  1  0.00000000  0.75000000  0.96195000  1.0
  Si  Si10  1  0.00003000  0.25703000  0.11186000  1.0
  Si  Si11  1  0.00036000  0.74318000  0.11174000  1.0
  Si  Si12  1  0.50000000  0.00000000  0.88585000  1.0
  Si  Si13  1  0.50000000  0.50000000  0.88585000  1.0
  Si  Si14  1  0.50012000  0.50009000  0.03821000  1.0
  Si  Si15  1  0.50013000  0.99985000  0.03671000  1.0
  Ni  Ni16  1  0.22760000  0.99998000  0.11321000  1.0
  Ni  Ni17  1  0.23247000  0.50004000  0.10693000  1.0
  Ni  Ni18  1  0.25000000  0.00000000  0.96195000  1.0
  Ni  Ni19  1  0.25000000  0.25000000  0.88585000  1.0
  Ni  Ni20  1  0.25000000  0.50000000  0.96195000  1.0
  Ni  Ni21  1  0.25000000  0.75000000  0.88585000  1.0
  Ni  Ni22  1  0.25709000  0.75373000  0.03923000  1.0
  Ni  Ni23  1  0.25711000  0.24621000  0.03946000  1.0
  Ni  Ni24  1  0.74297000  0.24620000  0.03939000  1.0
  Ni  Ni25  1  0.74406000  0.75398000  0.03922000  1.0
  Ni  Ni26  1  0.75000000  0.00000000  0.96195000  1.0
  Ni  Ni27  1  0.75000000  0.25000000  0.88585000  1.0
  Ni  Ni28  1  0.75000000  0.50000000  0.96195000  1.0
  Ni  Ni29  1  0.75000000  0.75000000  0.88585000  1.0
  Ni  Ni30  1  0.76763000  0.50001000  0.10689000  1.0
  Ni  Ni31  1  0.77302000  0.99994000  0.11309000  1.0
  C  C32  1  0.50055000  0.00000000  0.14543000  1.0
