# generated using pymatgen
data_Zr8Zn8Cu16CO
_symmetry_space_group_name_H-M   Pmm2
_cell_length_a   6.25397000
_cell_length_b   8.84445000
_cell_length_c   26.63330000
_cell_angle_alpha   90.00000000
_cell_angle_beta   90.00000000
_cell_angle_gamma   90.00000000
_symmetry_Int_Tables_number   25
_chemical_formula_structural   Zr8Zn8Cu16CO
_chemical_formula_sum   'Zr8 Zn8 Cu16 C1 O1'
_cell_volume   1473.16572451
_cell_formula_units_Z   1
loop_
 _symmetry_equiv_pos_site_id
 _symmetry_equiv_pos_as_xyz
  1  'x, y, z'
  2  '-x, -y, z'
  3  '-x, y, z'
  4  'x, -y, z'
loop_
 _atom_site_type_symbol
 _atom_site_label
 _atom_site_symmetry_multiplicity
 _atom_site_fract_x
 _atom_site_fract_y
 _atom_site_fract_z
 _atom_site_occupancy
  Zr  Zr0  2  0.00000000  0.25000000  0.87547000  1.0
  Zr  Zr1  2  0.00000000  0.25464000  0.04157000  1.0
  Zr  Zr2  1  0.50000000  0.00000000  0.12325000  1.0
  Zr  Zr3  1  0.50000000  0.00000000  0.95849000  1.0
  Zr  Zr4  1  0.50000000  0.50000000  0.12758000  1.0
  Zr  Zr5  1  0.50000000  0.50000000  0.95849000  1.0
  Zn  Zn6  2  0.50000000  0.24620000  0.03978000  1.0
  Zn  Zn7  2  0.50000000  0.25000000  0.87547000  1.0
  Zn  Zn8  1  0.00000000  0.00000000  0.12062000  1.0
  Zn  Zn9  1  0.00000000  0.00000000  0.95849000  1.0
  Zn  Zn10  1  0.00000000  0.50000000  0.11933000  1.0
  Zn  Zn11  1  0.00000000  0.50000000  0.95849000  1.0
  Cu  Cu12  4  0.25000000  0.25000000  0.95849000  1.0
  Cu  Cu13  4  0.25616000  0.25179000  0.12285000  1.0
  Cu  Cu14  2  0.24639000  0.00000000  0.04258000  1.0
  Cu  Cu15  2  0.25000000  0.50000000  0.87547000  1.0
  Cu  Cu16  2  0.25000000  0.00000000  0.87547000  1.0
  Cu  Cu17  2  0.26876000  0.50000000  0.04341000  1.0
  C  C18  1  0.00000000  0.00000000  0.19651000  1.0
  O  O19  1  0.00000000  0.00000000  0.23983000  1.0
