# generated using pymatgen
data_Li4Al4Ag4Pd4C
_symmetry_space_group_name_H-M   'P 1'
_cell_length_a   6.21941000
_cell_length_b   6.21941000
_cell_length_c   24.66460000
_cell_angle_alpha   90.00000000
_cell_angle_beta   90.00000000
_cell_angle_gamma   90.00000000
_symmetry_Int_Tables_number   1
_chemical_formula_structural   Li4Al4Ag4Pd4C
_chemical_formula_sum   'Li4 Al4 Ag4 Pd4 C1'
_cell_volume   954.05289093
_cell_formula_units_Z   1
loop_
 _symmetry_equiv_pos_site_id
 _symmetry_equiv_pos_as_xyz
  1  'x, y, z'
loop_
 _atom_site_type_symbol
 _atom_site_label
 _atom_site_symmetry_multiplicity
 _atom_site_fract_x
 _atom_site_fract_y
 _atom_site_fract_z
 _atom_site_occupancy
  Li  Li0  1  0.24928000  0.75072000  0.97242000  1
  Li  Li1  1  0.75000000  0.75000000  0.09456000  1
  Li  Li2  1  0.25000000  0.25000000  0.09456000  1
  Li  Li3  1  0.74966000  0.25034000  0.96549000  1
  Al  Al4  1  0.25003000  0.25010000  0.96475000  1
  Al  Al5  1  0.75000000  0.25000000  0.09456000  1
  Al  Al6  1  0.25000000  0.75000000  0.09456000  1
  Al  Al7  1  0.74990000  0.74997000  0.96475000  1
  Ag  Ag8  1  0.98090500  0.01909500  0.89693000  1
  Ag  Ag9  1  0.50000000  1.00000000  0.03152000  1
  Ag  Ag10  1  1.00000000  0.50000000  0.03152000  1
  Ag  Ag11  1  0.51865000  0.48135000  0.89705000  1
  Pd  Pd12  1  0.46879000  0.96905000  0.90571000  1
  Pd  Pd13  1  0.00000000  0.00000000  0.03152000  1
  Pd  Pd14  1  0.50000000  0.50000000  0.03152000  1
  Pd  Pd15  1  0.03095000  0.53121000  0.90571000  1
  C  C16  1  0.24921000  0.75079000  0.88557000  1
