# generated using pymatgen
data_Li4Al4Ag4Pd4C
_symmetry_space_group_name_H-M   Cm
_cell_length_a   8.79557397
_cell_length_b   8.79557397
_cell_length_c   24.66460000
_cell_angle_alpha   90.00000000
_cell_angle_beta   90.00000000
_cell_angle_gamma   90.00000000
_symmetry_Int_Tables_number   8
_chemical_formula_structural   Li4Al4Ag4Pd4C
_chemical_formula_sum   'Li8 Al8 Ag8 Pd8 C2'
_cell_volume   1908.10578186
_cell_formula_units_Z   2
loop_
 _symmetry_equiv_pos_site_id
 _symmetry_equiv_pos_as_xyz
  1  'x, y, z'
  2  'x, -y, z'
  3  'x+1/2, y+1/2, z'
  4  'x+1/2, -y+1/2, z'
loop_
 _atom_site_type_symbol
 _atom_site_label
 _atom_site_symmetry_multiplicity
 _atom_site_fract_x
 _atom_site_fract_y
 _atom_site_fract_z
 _atom_site_occupancy
  Li  Li0  4  0.00000000  0.25000000  0.90544000  1.0
  Li  Li1  2  0.24928000  0.00000000  0.02758000  1.0
  Li  Li2  2  0.24966000  0.50000000  0.03451000  1.0
  Al  Al3  4  0.49996500  0.24993500  0.03525000  1.0
  Al  Al4  2  0.25000000  0.00000000  0.90544000  1.0
  Al  Al5  2  0.25000000  0.50000000  0.90544000  1.0
  Ag  Ag6  4  0.25000000  0.25000000  0.96848000  1.0
  Ag  Ag7  2  0.01865000  0.50000000  0.10295000  1.0
  Ag  Ag8  2  0.48090500  0.50000000  0.10307000  1.0
  Pd  Pd9  4  0.24987000  0.21892000  0.09429000  1.0
  Pd  Pd10  2  0.00000000  0.00000000  0.96848000  1.0
  Pd  Pd11  2  0.00000000  0.50000000  0.96848000  1.0
  C  C12  2  0.24921000  0.00000000  0.11443000  1.0
