data_image0
_chemical_formula_structural       Zn4Pt12
_chemical_formula_sum              "Zn4 Pt12"
_cell_length_a       7.90864
_cell_length_b       5.59226
_cell_length_c       24.1942
_cell_angle_alpha    90
_cell_angle_beta     90
_cell_angle_gamma    90

_space_group_name_H-M_alt    "P 1"
_space_group_IT_number       1

loop_
  _space_group_symop_operation_xyz
  'x, y, z'

loop_
  _atom_site_type_symbol
  _atom_site_label
  _atom_site_symmetry_multiplicity
  _atom_site_fract_x
  _atom_site_fract_y
  _atom_site_fract_z
  _atom_site_occupancy
  Zn  Zn1       1.0  0.00000  0.00000  0.91332  1.0000
  Zn  Zn2       1.0  0.99996  0.50000  0.03202  1.0000
  Zn  Zn3       1.0  0.50000  0.00000  0.91332  1.0000
  Zn  Zn4       1.0  0.50004  0.50000  0.03202  1.0000
  Pt  Pt1       1.0  0.00000  0.50000  0.91332  1.0000
  Pt  Pt2       1.0  0.25000  0.75000  0.97111  1.0000
  Pt  Pt3       1.0  0.25000  0.25000  0.97111  1.0000
  Pt  Pt4       1.0  0.99997  1.00000  0.03030  1.0000
  Pt  Pt5       1.0  0.25000  0.25628  0.08507  1.0000
  Pt  Pt6       1.0  0.25000  0.74372  0.08507  1.0000
  Pt  Pt7       1.0  0.50000  0.50000  0.91332  1.0000
  Pt  Pt8       1.0  0.75000  0.75000  0.97111  1.0000
  Pt  Pt9       1.0  0.75000  0.25000  0.97111  1.0000
  Pt  Pt10      1.0  0.50003  1.00000  0.03030  1.0000
  Pt  Pt11      1.0  0.75000  0.25630  0.08506  1.0000
  Pt  Pt12      1.0  0.75000  0.74370  0.08506  1.0000
