# generated using pymatgen
data_Li8In8Pd8Ru8CO
_symmetry_space_group_name_H-M   P1
_cell_length_a   6.32045000
_cell_length_b   8.93846000
_cell_length_c   26.70380000
_cell_angle_alpha   90.00000000
_cell_angle_beta   90.00000000
_cell_angle_gamma   90.00000000
_symmetry_Int_Tables_number   1
_chemical_formula_structural   Li8In8Pd8Ru8CO
_chemical_formula_sum   'Li8 In8 Pd8 Ru8 C1 O1'
_cell_volume   1508.63357118
_cell_formula_units_Z   1
loop_
 _symmetry_equiv_pos_site_id
 _symmetry_equiv_pos_as_xyz
  1  'x, y, z'
loop_
 _atom_site_type_symbol
 _atom_site_label
 _atom_site_symmetry_multiplicity
 _atom_site_fract_x
 _atom_site_fract_y
 _atom_site_fract_z
 _atom_site_occupancy
  Li  Li0  1  0.00000000  0.25000000  0.95816000  1.0
  Li  Li1  1  0.00000000  0.75000000  0.95816000  1.0
  Li  Li2  1  0.49751000  0.49994000  0.04274000  1.0
  Li  Li3  1  0.49936000  0.99997000  0.03567000  1.0
  Li  Li4  1  0.50000000  0.00000000  0.87448000  1.0
  Li  Li5  1  0.50000000  0.50000000  0.87448000  1.0
  Li  Li6  1  0.99180000  0.23799000  0.13331000  1.0
  Li  Li7  1  0.99186000  0.76203000  0.13327000  1.0
  In  In8  1  0.00000000  0.00000000  0.87448000  1.0
  In  In9  1  0.00000000  0.50000000  0.87448000  1.0
  In  In10  1  0.48297000  0.26090000  0.13315000  1.0
  In  In11  1  0.48298000  0.73910000  0.13316000  1.0
  In  In12  1  0.50000000  0.25000000  0.95816000  1.0
  In  In13  1  0.50000000  0.75000000  0.95816000  1.0
  In  In14  1  0.99456000  0.50001000  0.03915000  1.0
  In  In15  1  0.99602000  0.00001000  0.04048000  1.0
  Ru  Ru16  1  0.22942000  0.50000000  0.12117000  1.0
  Pd  Pd17  1  0.24996000  0.74923000  0.04311000  1.0
  Ru  Ru18  1  0.25000000  0.00000000  0.95816000  1.0
  Pd  Pd19  1  0.25000000  0.25000000  0.87448000  1.0
  Ru  Ru20  1  0.25000000  0.50000000  0.95816000  1.0
  Pd  Pd21  1  0.25000000  0.75000000  0.87448000  1.0
  Pd  Pd22  1  0.25003000  0.25073000  0.04311000  1.0
  Ru  Ru23  1  0.25728000  0.00002000  0.12262000  1.0
  Pd  Pd24  1  0.71572000  0.99994000  0.11831000  1.0
  Ru  Ru25  1  0.74160000  0.24980000  0.04609000  1.0
  Ru  Ru26  1  0.74167000  0.75019000  0.04610000  1.0
  Pd  Pd27  1  0.75000000  0.00000000  0.95816000  1.0
  Ru  Ru28  1  0.75000000  0.25000000  0.87448000  1.0
  Pd  Pd29  1  0.75000000  0.50000000  0.95816000  1.0
  Ru  Ru30  1  0.75000000  0.75000000  0.87448000  1.0
  Pd  Pd31  1  0.75648000  0.50004000  0.12280000  1.0
  C  C32  1  0.11622000  0.00011000  0.18234000  1.0
  O  O33  1  0.03355000  0.00012000  0.22196000  1.0
