# generated using pymatgen
data_Li8Al8Cu8Pd8CO
_symmetry_space_group_name_H-M   Pm
_cell_length_a   6.00833000
_cell_length_b   8.49706000
_cell_length_c   26.37280000
_cell_angle_alpha   90.00000000
_cell_angle_beta   90.00000000
_cell_angle_gamma   90.00000000
_symmetry_Int_Tables_number   6
_chemical_formula_structural   Li8Al8Cu8Pd8CO
_chemical_formula_sum   'Li8 Al8 Cu8 Pd8 C1 O1'
_cell_volume   1346.41426404
_cell_formula_units_Z   1
loop_
 _symmetry_equiv_pos_site_id
 _symmetry_equiv_pos_as_xyz
  1  'x, y, z'
  2  'x, -y, z'
loop_
 _atom_site_type_symbol
 _atom_site_label
 _atom_site_symmetry_multiplicity
 _atom_site_fract_x
 _atom_site_fract_y
 _atom_site_fract_z
 _atom_site_occupancy
  Li  Li0  2  0.50000000  0.25000000  0.87918000  1.0
  Li  Li1  2  0.50121000  0.24950000  0.03699000  1.0
  Li  Li2  1  0.00000000  0.00000000  0.95973000  1.0
  Li  Li3  1  0.00000000  0.50000000  0.95973000  1.0
  Li  Li4  1  0.00118000  0.50000000  0.13242000  1.0
  Li  Li5  1  0.00329000  0.00000000  0.13530000  1.0
  Al  Al6  2  0.00000000  0.25000000  0.87918000  1.0
  Al  Al7  2  0.99857000  0.25063000  0.04054000  1.0
  Al  Al8  1  0.50000000  0.00000000  0.95973000  1.0
  Al  Al9  1  0.50000000  0.50000000  0.95973000  1.0
  Al  Al10  1  0.50230000  0.50000000  0.12016000  1.0
  Al  Al11  1  0.50360000  0.00000000  0.11930000  1.0
  Cu  Cu12  2  0.25000000  0.25000000  0.95973000  1.0
  Cu  Cu13  2  0.26856000  0.25066000  0.11486000  1.0
  Cu  Cu14  1  0.75000000  0.00000000  0.87918000  1.0
  Cu  Cu15  1  0.75000000  0.50000000  0.87918000  1.0
  Cu  Cu16  1  0.75389000  0.50000000  0.03999000  1.0
  Cu  Cu17  1  0.75712000  0.00000000  0.04027000  1.0
  Pd  Pd18  2  0.73426000  0.25088000  0.11575000  1.0
  Pd  Pd19  2  0.75000000  0.25000000  0.95973000  1.0
  Pd  Pd20  1  0.24432000  0.00000000  0.04097000  1.0
  Pd  Pd21  1  0.24668000  0.50000000  0.04036000  1.0
  Pd  Pd22  1  0.25000000  0.00000000  0.87918000  1.0
  Pd  Pd23  1  0.25000000  0.50000000  0.87918000  1.0
  C  C24  1  0.00832000  0.00000000  0.21598000  1.0
  O  O25  1  0.00386000  0.00000000  0.25913000  1.0
