# generated using pymatgen
data_Ni24Sn8CO
_symmetry_space_group_name_H-M   Pm
_cell_length_a   8.51054000
_cell_length_b   6.01786000
_cell_length_c   26.38290000
_cell_angle_alpha   90.00000000
_cell_angle_beta   90.00000000
_cell_angle_gamma   90.00000000
_symmetry_Int_Tables_number   6
_chemical_formula_structural   Ni24Sn8CO
_chemical_formula_sum   'Ni24 Sn8 C1 O1'
_cell_volume   1351.20650908
_cell_formula_units_Z   1
loop_
 _symmetry_equiv_pos_site_id
 _symmetry_equiv_pos_as_xyz
  1  'x, y, z'
  2  'x, -y, z'
loop_
 _atom_site_type_symbol
 _atom_site_label
 _atom_site_symmetry_multiplicity
 _atom_site_fract_x
 _atom_site_fract_y
 _atom_site_fract_z
 _atom_site_occupancy
  Ni  Ni0  2  0.00000000  0.25000000  0.95968000  1.0
  Ni  Ni1  2  0.24999000  0.25357000  0.04091000  1.0
  Ni  Ni2  2  0.25000000  0.25000000  0.87903000  1.0
  Ni  Ni3  2  0.50000000  0.25000000  0.95968000  1.0
  Ni  Ni4  2  0.50017000  0.24507000  0.11658000  1.0
  Ni  Ni5  2  0.74999000  0.26622000  0.04213000  1.0
  Ni  Ni6  2  0.75000000  0.25000000  0.87903000  1.0
  Ni  Ni7  2  0.99991000  0.24463000  0.11660000  1.0
  Ni  Ni8  1  0.00000000  0.50000000  0.87903000  1.0
  Ni  Ni9  1  0.00221000  0.50000000  0.03951000  1.0
  Ni  Ni10  1  0.25000000  0.00000000  0.95968000  1.0
  Ni  Ni11  1  0.25002000  0.00000000  0.11624000  1.0
  Ni  Ni12  1  0.49786000  0.50000000  0.03948000  1.0
  Ni  Ni13  1  0.50000000  0.50000000  0.87903000  1.0
  Ni  Ni14  1  0.74990000  0.00000000  0.11560000  1.0
  Ni  Ni15  1  0.75000000  0.00000000  0.95968000  1.0
  Sn  Sn16  1  0.00000000  0.00000000  0.87903000  1.0
  Sn  Sn17  1  0.24992000  0.50000000  0.12553000  1.0
  Sn  Sn18  1  0.25000000  0.50000000  0.95968000  1.0
  Sn  Sn19  1  0.50000000  0.00000000  0.87903000  1.0
  Sn  Sn20  1  0.50355000  0.00000000  0.03773000  1.0
  Sn  Sn21  1  0.75000000  0.50000000  0.95968000  1.0
  Sn  Sn22  1  0.75010000  0.50000000  0.12887000  1.0
  Sn  Sn23  1  0.99642000  0.00000000  0.03770000  1.0
  C  C24  1  0.24998000  0.50000000  0.27454000  1.0
  O  O25  1  0.24998000  0.50000000  0.31753000  1.0
