# generated using pymatgen
data_Li8Cu8Si8Pd8CO
_symmetry_space_group_name_H-M   Pm
_cell_length_a   5.89837000
_cell_length_b   8.34156000
_cell_length_c   26.25620000
_cell_angle_alpha   90.00000000
_cell_angle_beta   90.00000000
_cell_angle_gamma   90.00000000
_symmetry_Int_Tables_number   6
_chemical_formula_structural   Li8Cu8Si8Pd8CO
_chemical_formula_sum   'Li8 Cu8 Si8 Pd8 C1 O1'
_cell_volume   1291.84724047
_cell_formula_units_Z   1
loop_
 _symmetry_equiv_pos_site_id
 _symmetry_equiv_pos_as_xyz
  1  'x, y, z'
  2  'x, -y, z'
loop_
 _atom_site_type_symbol
 _atom_site_label
 _atom_site_symmetry_multiplicity
 _atom_site_fract_x
 _atom_site_fract_y
 _atom_site_fract_z
 _atom_site_occupancy
  Li  Li0  2  0.25000000  0.25000000  0.96029000  1.0
  Li  Li1  2  0.25114000  0.25732000  0.13564000  1.0
  Li  Li2  1  0.74400000  0.50000000  0.03455000  1.0
  Li  Li3  1  0.74442000  0.00000000  0.03721000  1.0
  Li  Li4  1  0.75000000  0.00000000  0.88086000  1.0
  Li  Li5  1  0.75000000  0.50000000  0.88086000  1.0
  Cu  Cu6  2  0.00000000  0.25000000  0.88086000  1.0
  Cu  Cu7  2  0.00864000  0.25027000  0.04090000  1.0
  Si  Si8  2  0.75000000  0.25000000  0.96029000  1.0
  Si  Si9  2  0.76106000  0.25141000  0.11757000  1.0
  Si  Si10  1  0.24769000  0.00000000  0.03859000  1.0
  Si  Si11  1  0.25000000  0.00000000  0.88086000  1.0
  Si  Si12  1  0.25000000  0.50000000  0.88086000  1.0
  Si  Si13  1  0.25428000  0.50000000  0.03999000  1.0
  Cu  Cu14  1  0.50000000  0.00000000  0.96029000  1.0
  Cu  Cu15  1  0.50000000  0.50000000  0.96029000  1.0
  Cu  Cu16  1  0.52240000  0.00000000  0.12182000  1.0
  Cu  Cu17  1  0.52880000  0.50000000  0.11350000  1.0
  Pd  Pd18  2  0.48791000  0.24451000  0.04505000  1.0
  Pd  Pd19  2  0.50000000  0.25000000  0.88086000  1.0
  Pd  Pd20  1  0.00000000  0.00000000  0.96029000  1.0
  Pd  Pd21  1  0.00000000  0.50000000  0.96029000  1.0
  Pd  Pd22  1  0.98538000  0.50000000  0.11233000  1.0
  Pd  Pd23  1  0.98664000  0.00000000  0.11383000  1.0
  C  C24  1  0.36444000  0.00000000  0.18419000  1.0
  O  O25  1  0.32411000  0.00000000  0.22744000  1.0
