data_image0
_chemical_formula_structural       Mg4Sc4In4Pd4C
_chemical_formula_sum              "Mg4 Sc4 In4 Pd4 C1"
_cell_length_a       6.76782
_cell_length_b       6.76782
_cell_length_c       25.0759
_cell_angle_alpha    90
_cell_angle_beta     90
_cell_angle_gamma    90

_space_group_name_H-M_alt    "P 1"
_space_group_IT_number       1

loop_
  _space_group_symop_operation_xyz
  'x, y, z'

loop_
  _atom_site_type_symbol
  _atom_site_label
  _atom_site_symmetry_multiplicity
  _atom_site_fract_x
  _atom_site_fract_y
  _atom_site_fract_z
  _atom_site_occupancy
  Mg  Mg1       1.0  0.25144  0.25126  0.03616  1.0000
  Mg  Mg2       1.0  0.25000  0.75000  0.89879  1.0000
  Mg  Mg3       1.0  0.75000  0.25000  0.89879  1.0000
  Mg  Mg4       1.0  0.74874  0.74857  0.03617  1.0000
  Sc  Sc1       1.0  0.75050  0.24950  0.03232  1.0000
  Sc  Sc2       1.0  0.75000  0.75000  0.89879  1.0000
  Sc  Sc3       1.0  0.25000  0.25000  0.89879  1.0000
  Sc  Sc4       1.0  0.24893  0.75106  0.04634  1.0000
  In  In1       1.0  0.98474  0.01528  0.12523  1.0000
  In  In2       1.0  0.00000  0.50000  0.96626  1.0000
  In  In3       1.0  0.50000  0.00000  0.96626  1.0000
  In  In4       1.0  0.51276  0.48722  0.12519  1.0000
  Pd  Pd1       1.0  0.98856  0.48733  0.08993  1.0000
  Pd  Pd2       1.0  0.00000  0.00000  0.96626  1.0000
  Pd  Pd3       1.0  0.50000  0.50000  0.96626  1.0000
  Pd  Pd4       1.0  0.51266  0.01144  0.08993  1.0000
  C   C1        1.0  0.74859  0.25139  0.11702  1.0000
