data_image0
_chemical_formula_structural       Mg8Sc8In8Pd8C
_chemical_formula_sum              "Mg8 Sc8 In8 Pd8 C1"
_cell_length_a       6.76782
_cell_length_b       9.57114
_cell_length_c       27.1784
_cell_angle_alpha    90
_cell_angle_beta     90
_cell_angle_gamma    90

_space_group_name_H-M_alt    "P 1"
_space_group_IT_number       1

loop_
  _space_group_symop_operation_xyz
  'x, y, z'

loop_
  _atom_site_type_symbol
  _atom_site_label
  _atom_site_symmetry_multiplicity
  _atom_site_fract_x
  _atom_site_fract_y
  _atom_site_fract_z
  _atom_site_occupancy
  Mg  Mg1       1.0  0.25000  0.00000  0.95598  1.0000
  Mg  Mg2       1.0  0.25000  0.50000  0.95598  1.0000
  Mg  Mg3       1.0  0.75000  0.25000  0.86794  1.0000
  Mg  Mg4       1.0  0.75000  0.75000  0.86794  1.0000
  Mg  Mg5       1.0  0.23646  0.50000  0.13940  1.0000
  Mg  Mg6       1.0  0.19414  0.00001  0.14457  1.0000
  Mg  Mg7       1.0  0.74579  0.75014  0.04495  1.0000
  Mg  Mg8       1.0  0.74578  0.24986  0.04496  1.0000
  Sc  Sc1       1.0  0.75000  0.00000  0.95598  1.0000
  Sc  Sc2       1.0  0.75000  0.50000  0.95598  1.0000
  Sc  Sc3       1.0  0.25000  0.25000  0.86794  1.0000
  Sc  Sc4       1.0  0.25000  0.75000  0.86794  1.0000
  Sc  Sc5       1.0  0.71359  0.50000  0.12965  1.0000
  Sc  Sc6       1.0  0.74377  0.99999  0.12745  1.0000
  Sc  Sc7       1.0  0.27358  0.74673  0.05332  1.0000
  Sc  Sc8       1.0  0.27357  0.25326  0.05333  1.0000
  In  In1       1.0  0.00000  0.00000  0.86794  1.0000
  In  In2       1.0  0.00000  0.50000  0.86794  1.0000
  In  In3       1.0  0.50000  0.75000  0.95598  1.0000
  In  In4       1.0  0.50000  0.25000  0.95598  1.0000
  In  In5       1.0  0.00254  0.50000  0.04677  1.0000
  In  In6       1.0  0.01724  1.00000  0.04343  1.0000
  In  In7       1.0  0.49364  0.23876  0.16763  1.0000
  In  In8       1.0  0.49360  0.76124  0.16762  1.0000
  Pd  Pd1       1.0  0.00000  0.25000  0.95598  1.0000
  Pd  Pd2       1.0  0.00000  0.75000  0.95598  1.0000
  Pd  Pd3       1.0  0.50000  0.50000  0.86794  1.0000
  Pd  Pd4       1.0  0.50000  0.00000  0.86794  1.0000
  Pd  Pd5       1.0  0.98824  0.74227  0.12422  1.0000
  Pd  Pd6       1.0  0.98824  0.25773  0.12423  1.0000
  Pd  Pd7       1.0  0.50008  0.00000  0.03800  1.0000
  Pd  Pd8       1.0  0.49469  0.50000  0.04263  1.0000
  C   C1        1.0  0.49019  0.00000  0.16823  1.0000
