# generated using pymatgen
data_Mg8Sc8In8Pd8C
_symmetry_space_group_name_H-M   'P 1'
_cell_length_a   9.57114000
_cell_length_b   6.76782000
_cell_length_c   27.17840000
_cell_angle_alpha   90.00000000
_cell_angle_beta   90.00000000
_cell_angle_gamma   90.00000000
_symmetry_Int_Tables_number   1
_chemical_formula_structural   Mg8Sc8In8Pd8C
_chemical_formula_sum   'Mg8 Sc8 In8 Pd8 C1'
_cell_volume   1760.50131758
_cell_formula_units_Z   1
loop_
 _symmetry_equiv_pos_site_id
 _symmetry_equiv_pos_as_xyz
  1  'x, y, z'
loop_
 _atom_site_type_symbol
 _atom_site_label
 _atom_site_symmetry_multiplicity
 _atom_site_fract_x
 _atom_site_fract_y
 _atom_site_fract_z
 _atom_site_occupancy
  Mg  Mg0  1  0.00000000  0.25000000  0.04402000  1.0
  Mg  Mg1  1  0.50000000  0.25000000  0.04402000  1.0
  Mg  Mg2  1  0.25000000  0.75000000  0.13206000  1.0
  Mg  Mg3  1  0.75000000  0.75000000  0.13206000  1.0
  Mg  Mg4  1  0.50000000  0.23646000  0.86060000  1.0
  Mg  Mg5  1  0.00000000  0.19414000  0.85543000  1.0
  Mg  Mg6  1  0.75014000  0.74579000  0.95505000  1.0
  Mg  Mg7  1  0.24986000  0.74579000  0.95505000  1.0
  Sc  Sc8  1  0.00000000  0.75000000  0.04402000  1.0
  Sc  Sc9  1  0.50000000  0.75000000  0.04402000  1.0
  Sc  Sc10  1  0.25000000  0.25000000  0.13206000  1.0
  Sc  Sc11  1  0.75000000  0.25000000  0.13206000  1.0
  Sc  Sc12  1  0.50000000  0.71359000  0.87035000  1.0
  Sc  Sc13  1  0.00000000  0.74377000  0.87255000  1.0
  Sc  Sc14  1  0.74673000  0.27358000  0.94668000  1.0
  Sc  Sc15  1  0.25327000  0.27358000  0.94668000  1.0
  In  In16  1  0.00000000  0.00000000  0.13206000  1.0
  In  In17  1  0.50000000  1.00000000  0.13206000  1.0
  In  In18  1  0.75000000  0.50000000  0.04402000  1.0
  In  In19  1  0.25000000  0.50000000  0.04402000  1.0
  In  In20  1  0.50000000  0.00254000  0.95323000  1.0
  In  In21  1  0.00000000  0.01724000  0.95657000  1.0
  In  In22  1  0.23876000  0.49364000  0.83237000  1.0
  In  In23  1  0.76124000  0.49364000  0.83237000  1.0
  Pd  Pd24  1  0.25000000  1.00000000  0.04402000  1.0
  Pd  Pd25  1  0.75000000  1.00000000  0.04402000  1.0
  Pd  Pd26  1  0.50000000  0.50000000  0.13206000  1.0
  Pd  Pd27  1  0.00000000  0.50000000  0.13206000  1.0
  Pd  Pd28  1  0.74227000  0.98824000  0.87578000  1.0
  Pd  Pd29  1  0.25773000  0.98824000  0.87578000  1.0
  Pd  Pd30  1  0.00000000  0.50008000  0.96200000  1.0
  Pd  Pd31  1  0.50000000  0.49469000  0.95737000  1.0
  C  C32  1  0.00000000  0.49019000  0.83177000  1.0
