# generated using pymatgen
data_Y8Mg8Sn8Pd8CO
_symmetry_space_group_name_H-M   'P 1'
_cell_length_a   9.90846000
_cell_length_b   7.00634000
_cell_length_c   27.43130000
_cell_angle_alpha   90.00000000
_cell_angle_beta   90.00000000
_cell_angle_gamma   90.00000000
_symmetry_Int_Tables_number   1
_chemical_formula_structural   Y8Mg8Sn8Pd8CO
_chemical_formula_sum   'Y8 Mg8 Sn8 Pd8 C1 O1'
_cell_volume   1904.33679588
_cell_formula_units_Z   1
loop_
 _symmetry_equiv_pos_site_id
 _symmetry_equiv_pos_as_xyz
  1  'x, y, z'
loop_
 _atom_site_type_symbol
 _atom_site_label
 _atom_site_symmetry_multiplicity
 _atom_site_fract_x
 _atom_site_fract_y
 _atom_site_fract_z
 _atom_site_occupancy
  Y  Y0  1  0.24998000  1.00000000  0.04515000  1.0
  Y  Y1  1  0.75002000  1.00000000  0.04515000  1.0
  Y  Y2  1  0.50000000  0.50000000  0.13545000  1.0
  Y  Y3  1  0.00000000  0.50000000  0.13545000  1.0
  Y  Y4  1  0.76974000  0.03134000  0.85901000  1.0
  Y  Y5  1  0.23026000  0.03134000  0.85901000  1.0
  Y  Y6  1  0.00000000  0.48799000  0.95271000  1.0
  Y  Y7  1  0.50000000  0.49999000  0.95221000  1.0
  Mg  Mg8  1  0.00000000  0.00000000  0.13545000  1.0
  Mg  Mg9  1  0.50000000  1.00000000  0.13545000  1.0
  Mg  Mg10  1  0.74998000  0.50000000  0.04515000  1.0
  Mg  Mg11  1  0.25002000  0.50000000  0.04515000  1.0
  Mg  Mg12  1  0.50000000  0.01898000  0.95091000  1.0
  Mg  Mg13  1  0.00000000  0.01294000  0.95088000  1.0
  Mg  Mg14  1  0.26257000  0.50847000  0.86420000  1.0
  Mg  Mg15  1  0.73743000  0.50847000  0.86420000  1.0
  Sn  Sn16  1  0.00000000  0.25000000  0.04515000  1.0
  Sn  Sn17  1  0.50000000  0.25000000  0.04515000  1.0
  Sn  Sn18  1  0.24998000  0.75000000  0.13545000  1.0
  Sn  Sn19  1  0.75002000  0.75000000  0.13545000  1.0
  Sn  Sn20  1  0.50000000  0.25331000  0.84890000  1.0
  Sn  Sn21  1  0.00000000  0.32743000  0.84299000  1.0
  Sn  Sn22  1  0.75263000  0.76499000  0.94910000  1.0
  Sn  Sn23  1  0.24737000  0.76499000  0.94910000  1.0
  Pd  Pd24  1  0.00000000  0.75000000  0.04515000  1.0
  Pd  Pd25  1  0.50000000  0.75000000  0.04515000  1.0
  Pd  Pd26  1  0.24998000  0.25000000  0.13545000  1.0
  Pd  Pd27  1  0.75002000  0.25000000  0.13545000  1.0
  Pd  Pd28  1  0.50000000  0.77915000  0.87455000  1.0
  Pd  Pd29  1  0.00000000  0.73617000  0.86611000  1.0
  Pd  Pd30  1  0.74799000  0.22918000  0.95308000  1.0
  Pd  Pd31  1  0.25201000  0.22918000  0.95308000  1.0
  C  C32  1  0.00000000  0.83015000  0.79836000  1.0
  O  O33  1  0.00000000  0.83191000  0.75589000  1.0
