# generated using pymatgen
data_Li4In4Cu4Sn4CO
_symmetry_space_group_name_H-M   Cm
_cell_length_a   9.53092260
_cell_length_b   9.53092260
_cell_length_c   25.05450000
_cell_angle_alpha   90.00000000
_cell_angle_beta   90.00000000
_cell_angle_gamma   90.00000000
_symmetry_Int_Tables_number   8
_chemical_formula_structural   Li4In4Cu4Sn4CO
_chemical_formula_sum   'Li8 In8 Cu8 Sn8 C2 O2'
_cell_volume   2275.91283668
_cell_formula_units_Z   2
loop_
 _symmetry_equiv_pos_site_id
 _symmetry_equiv_pos_as_xyz
  1  'x, y, z'
  2  'x, -y, z'
  3  'x+1/2, y+1/2, z'
  4  'x+1/2, -y+1/2, z'
loop_
 _atom_site_type_symbol
 _atom_site_label
 _atom_site_symmetry_multiplicity
 _atom_site_fract_x
 _atom_site_fract_y
 _atom_site_fract_z
 _atom_site_occupancy
  Li  Li0  4  0.25000500  0.25000500  0.89913000  1.0
  Li  Li1  2  0.02614500  0.00000000  0.03872000  1.0
  Li  Li2  2  0.47408500  0.00000000  0.03860000  1.0
  In  In3  4  0.00000500  0.24999500  0.96638000  1.0
  In  In4  2  0.24938000  0.50000000  0.09992000  1.0
  In  In5  2  0.25001000  0.00000000  0.12975000  1.0
  Cu  Cu6  4  0.24967500  0.23314500  0.03162000  1.0
  Cu  Cu7  2  0.00000500  0.00000000  0.89913000  1.0
  Cu  Cu8  2  0.00000500  0.50000000  0.89913000  1.0
  Sn  Sn9  4  0.49908000  0.25042000  0.10129000  1.0
  Sn  Sn10  2  0.25000500  0.00000000  0.96638000  1.0
  Sn  Sn11  2  0.25000500  0.50000000  0.96638000  1.0
  C  C12  2  0.23916000  0.50000000  0.24820000  1.0
  O  O13  2  0.25738500  0.50000000  0.29298000  1.0
