# generated using pymatgen
data_Li4Sc4Al4In4C
_symmetry_space_group_name_H-M   'P 1'
_cell_length_a   5.96334000
_cell_length_b   8.71362000
_cell_length_c   24.47210000
_cell_angle_alpha   90.00000000
_cell_angle_beta   90.00000000
_cell_angle_gamma   90.00000000
_symmetry_Int_Tables_number   1
_chemical_formula_structural   Li4Sc4Al4In4C
_chemical_formula_sum   'Li4 Sc4 Al4 In4 C1'
_cell_volume   1271.62608035
_cell_formula_units_Z   1
loop_
 _symmetry_equiv_pos_site_id
 _symmetry_equiv_pos_as_xyz
  1  'x, y, z'
loop_
 _atom_site_type_symbol
 _atom_site_label
 _atom_site_symmetry_multiplicity
 _atom_site_fract_x
 _atom_site_fract_y
 _atom_site_fract_z
 _atom_site_occupancy
  Li  Li0  1  0.74648000  0.25000000  0.96954000  1.0
  Li  Li1  1  0.38585000  0.17977000  0.10439000  1.0
  Li  Li2  1  0.74648000  0.75000000  0.96954000  1.0
  Li  Li3  1  0.38671000  0.82021000  0.10446000  1.0
  Sc  Sc4  1  0.50000000  0.00000000  0.90863000  1.0
  Sc  Sc5  1  0.98950000  0.99992000  0.03332000  1.0
  Sc  Sc6  1  0.50000000  0.50000000  0.90863000  1.0
  Sc  Sc7  1  0.04004000  0.50004000  0.04250000  1.0
  Al  Al8  1  0.00000000  0.00000000  0.90863000  1.0
  Al  Al9  1  0.50717000  0.99996000  0.02106000  1.0
  Al  Al10  1  0.00000000  0.50000000  0.90863000  1.0
  Al  Al11  1  0.55482000  0.49986000  0.03661000  1.0
  In  In12  1  0.24648000  0.25000000  0.96954000  1.0
  In  In13  1  0.84853000  0.24680000  0.11015000  1.0
  In  In14  1  0.24648000  0.75000000  0.96954000  1.0
  In  In15  1  0.84925000  0.75343000  0.11028000  1.0
  C  C16  1  0.68891000  0.99976000  0.08743000  1.0
