# generated using pymatgen
data_LiAlAgGe
_symmetry_space_group_name_H-M   'P 1'
_cell_length_a   5.75991000
_cell_length_b   4.01367000
_cell_length_c   24.29680000
_cell_angle_alpha   90.00000000
_cell_angle_beta   90.00000000
_cell_angle_gamma   90.00000000
_symmetry_Int_Tables_number   1
_chemical_formula_structural   LiAlAgGe
_chemical_formula_sum   'Li2 Al2 Ag2 Ge2'
_cell_volume   561.70260585
_cell_formula_units_Z   2
loop_
 _symmetry_equiv_pos_site_id
 _symmetry_equiv_pos_as_xyz
  1  'x, y, z'
loop_
 _atom_site_type_symbol
 _atom_site_label
 _atom_site_symmetry_multiplicity
 _atom_site_fract_x
 _atom_site_fract_y
 _atom_site_fract_z
 _atom_site_occupancy
  Li  Li0  1  0.77582000  0.50000000  0.97053000  1.0
  Li  Li1  1  0.31697000  0.50000000  0.09542000  1.0
  Al  Al2  1  0.50000000  0.00000000  0.91158000  1.0
  Al  Al3  1  0.05669000  0.00000000  0.03320500  1.0
  Ag  Ag4  1  0.00000000  0.00000000  0.91158000  1.0
  Ag  Ag5  1  0.55292000  0.00000000  0.03557000  1.0
  Ge  Ge6  1  0.27582000  0.50000000  0.97053000  1.0
  Ge  Ge7  1  0.82466000  0.50000000  0.08790500  1.0
