# generated using pymatgen
data_Li8Mg8Ag8Ge8CO
_symmetry_space_group_name_H-M   'P 1'
_cell_length_a   9.20048000
_cell_length_b   6.50572000
_cell_length_c   26.90040000
_cell_angle_alpha   90.00000000
_cell_angle_beta   90.00000000
_cell_angle_gamma   90.00000000
_symmetry_Int_Tables_number   1
_chemical_formula_structural   Li8Mg8Ag8Ge8CO
_chemical_formula_sum   'Li8 Mg8 Ag8 Ge8 C1 O1'
_cell_volume   1610.14352976
_cell_formula_units_Z   1
loop_
 _symmetry_equiv_pos_site_id
 _symmetry_equiv_pos_as_xyz
  1  'x, y, z'
loop_
 _atom_site_type_symbol
 _atom_site_label
 _atom_site_symmetry_multiplicity
 _atom_site_fract_x
 _atom_site_fract_y
 _atom_site_fract_z
 _atom_site_occupancy
  Li  Li0  1  0.75000000  0.75000000  0.04275000  1.0
  Li  Li1  1  0.25000000  0.75000000  0.04275000  1.0
  Li  Li2  1  0.00000000  0.25000000  0.12826000  1.0
  Li  Li3  1  0.50000000  0.25000000  0.12826000  1.0
  Li  Li4  1  0.24100000  0.76021000  0.86634000  1.0
  Li  Li5  1  0.75900000  0.76021000  0.86634000  1.0
  Li  Li6  1  0.50000000  0.24860000  0.95284000  1.0
  Li  Li7  1  0.00000000  0.25018000  0.95824000  1.0
  Mg  Mg8  1  0.75000000  0.25000000  0.04275000  1.0
  Mg  Mg9  1  0.25000000  0.25000000  0.04275000  1.0
  Mg  Mg10  1  0.00000000  0.75000000  0.12826000  1.0
  Mg  Mg11  1  0.50000000  0.75000000  0.12826000  1.0
  Mg  Mg12  1  0.26739000  0.22117000  0.86277000  1.0
  Mg  Mg13  1  0.73261000  0.22117000  0.86277000  1.0
  Mg  Mg14  1  0.50000000  0.75045000  0.95602000  1.0
  Mg  Mg15  1  0.00000000  0.74431000  0.95251000  1.0
  Ag  Ag16  1  0.75000000  0.00000000  0.12826000  1.0
  Ag  Ag17  1  0.25000000  0.00000000  0.12826000  1.0
  Ag  Ag18  1  0.50000000  0.50000000  0.04275000  1.0
  Ag  Ag19  1  0.00000000  0.50000000  0.04275000  1.0
  Ag  Ag20  1  0.24838000  0.00599000  0.95405000  1.0
  Ag  Ag21  1  0.75162000  0.00599000  0.95405000  1.0
  Ag  Ag22  1  0.00000000  0.45027000  0.86890000  1.0
  Ag  Ag23  1  0.50000000  0.52049000  0.86737000  1.0
  Ge  Ge24  1  0.00000000  0.00000000  0.04275000  1.0
  Ge  Ge25  1  0.50000000  0.00000000  0.04275000  1.0
  Ge  Ge26  1  0.25000000  0.50000000  0.12826000  1.0
  Ge  Ge27  1  0.75000000  0.50000000  0.12826000  1.0
  Ge  Ge28  1  0.50000000  0.96133000  0.86358000  1.0
  Ge  Ge29  1  0.00000000  0.01370000  0.86832000  1.0
  Ge  Ge30  1  0.75064000  0.48971000  0.94789000  1.0
  Ge  Ge31  1  0.24936000  0.48971000  0.94789000  1.0
  C  C32  1  0.00000000  0.53091000  0.78554000  1.0
  O  O33  1  0.00000000  0.49998000  0.74361000  1.0
