# generated using pymatgen
data_Li8Mg8Ag8Ge8CO
_symmetry_space_group_name_H-M   Pm
_cell_length_a   6.50572000
_cell_length_b   9.20048000
_cell_length_c   26.90040000
_cell_angle_alpha   90.00000000
_cell_angle_beta   90.00000000
_cell_angle_gamma   90.00000000
_symmetry_Int_Tables_number   6
_chemical_formula_structural   Li8Mg8Ag8Ge8CO
_chemical_formula_sum   'Li8 Mg8 Ag8 Ge8 C1 O1'
_cell_volume   1610.14352976
_cell_formula_units_Z   1
loop_
 _symmetry_equiv_pos_site_id
 _symmetry_equiv_pos_as_xyz
  1  'x, y, z'
  2  'x, -y, z'
loop_
 _atom_site_type_symbol
 _atom_site_label
 _atom_site_symmetry_multiplicity
 _atom_site_fract_x
 _atom_site_fract_y
 _atom_site_fract_z
 _atom_site_occupancy
  Li  Li0  2  0.75000000  0.25000000  0.95725000  1.0
  Li  Li1  2  0.76021000  0.24100000  0.13366000  1.0
  Li  Li2  1  0.24860000  0.50000000  0.04716000  1.0
  Li  Li3  1  0.25000000  0.00000000  0.87174000  1.0
  Li  Li4  1  0.25000000  0.50000000  0.87174000  1.0
  Li  Li5  1  0.25018000  0.00000000  0.04176000  1.0
  Mg  Mg6  2  0.22117000  0.26739000  0.13723000  1.0
  Mg  Mg7  2  0.25000000  0.25000000  0.95725000  1.0
  Mg  Mg8  1  0.74431000  0.00000000  0.04749000  1.0
  Mg  Mg9  1  0.75000000  0.00000000  0.87174000  1.0
  Mg  Mg10  1  0.75000000  0.50000000  0.87174000  1.0
  Mg  Mg11  1  0.75045000  0.50000000  0.04398000  1.0
  Ag  Ag12  2  0.00000000  0.25000000  0.87174000  1.0
  Ag  Ag13  2  0.00599000  0.24838000  0.04595000  1.0
  Ag  Ag14  1  0.45027000  0.00000000  0.13110000  1.0
  Ag  Ag15  1  0.50000000  0.00000000  0.95725000  1.0
  Ag  Ag16  1  0.50000000  0.50000000  0.95725000  1.0
  Ag  Ag17  1  0.52049000  0.50000000  0.13263000  1.0
  Ge  Ge18  2  0.48971000  0.24936000  0.05211000  1.0
  Ge  Ge19  2  0.50000000  0.25000000  0.87174000  1.0
  Ge  Ge20  1  0.00000000  0.00000000  0.95725000  1.0
  Ge  Ge21  1  0.00000000  0.50000000  0.95725000  1.0
  Ge  Ge22  1  0.01370000  0.00000000  0.13168000  1.0
  Ge  Ge23  1  0.96133000  0.50000000  0.13642000  1.0
  C  C24  1  0.53091000  0.00000000  0.21446000  1.0
  O  O25  1  0.49998000  0.00000000  0.25639000  1.0
