data_image0
_chemical_formula_structural       Sc16Rh16C
_chemical_formula_sum              "Sc16 Rh16 C1"
_cell_length_a       6.47981
_cell_length_b       9.16384
_cell_length_c       26.8729
_cell_angle_alpha    90
_cell_angle_beta     90
_cell_angle_gamma    90

_space_group_name_H-M_alt    "P 1"
_space_group_IT_number       1

loop_
  _space_group_symop_operation_xyz
  'x, y, z'

loop_
  _atom_site_type_symbol
  _atom_site_label
  _atom_site_symmetry_multiplicity
  _atom_site_fract_x
  _atom_site_fract_y
  _atom_site_fract_z
  _atom_site_occupancy
  Sc  Sc1       1.0  0.25000  0.25000  0.87212  1.0000
  Sc  Sc2       1.0  0.25000  0.00000  0.95737  1.0000
  Sc  Sc3       1.0  0.25000  0.25000  0.04263  1.0000
  Sc  Sc4       1.0  0.25000  0.00000  0.12788  1.0000
  Sc  Sc5       1.0  0.25000  0.75000  0.87212  1.0000
  Sc  Sc6       1.0  0.25000  0.50000  0.95737  1.0000
  Sc  Sc7       1.0  0.25000  0.75000  0.04263  1.0000
  Sc  Sc8       1.0  0.25000  0.50000  0.12788  1.0000
  Sc  Sc9       1.0  0.75000  0.25000  0.87212  1.0000
  Sc  Sc10      1.0  0.75000  0.00000  0.95737  1.0000
  Sc  Sc11      1.0  0.75000  0.25000  0.04263  1.0000
  Sc  Sc12      1.0  0.75000  0.00000  0.12788  1.0000
  Sc  Sc13      1.0  0.75000  0.75000  0.87212  1.0000
  Sc  Sc14      1.0  0.75000  0.50000  0.95737  1.0000
  Sc  Sc15      1.0  0.75000  0.75000  0.04263  1.0000
  Sc  Sc16      1.0  0.75000  0.50000  0.12788  1.0000
  Rh  Rh1       1.0  0.00000  0.00000  0.87212  1.0000
  Rh  Rh2       1.0  0.00000  0.25000  0.95737  1.0000
  Rh  Rh3       1.0  0.00000  0.00000  0.04263  1.0000
  Rh  Rh4       1.0  0.00000  0.25000  0.12788  1.0000
  Rh  Rh5       1.0  0.00000  0.50000  0.87212  1.0000
  Rh  Rh6       1.0  0.00000  0.75000  0.95737  1.0000
  Rh  Rh7       1.0  0.00000  0.50000  0.04263  1.0000
  Rh  Rh8       1.0  0.00000  0.75000  0.12788  1.0000
  Rh  Rh9       1.0  0.50000  0.00000  0.87212  1.0000
  Rh  Rh10      1.0  0.50000  0.25000  0.95737  1.0000
  Rh  Rh11      1.0  0.50000  0.00000  0.04263  1.0000
  Rh  Rh12      1.0  0.50000  0.25000  0.12788  1.0000
  Rh  Rh13      1.0  0.50000  0.50000  0.87212  1.0000
  Rh  Rh14      1.0  0.50000  0.75000  0.95737  1.0000
  Rh  Rh15      1.0  0.50000  0.50000  0.04263  1.0000
  Rh  Rh16      1.0  0.50000  0.75000  0.12788  1.0000
  C   C1        1.0  0.25000  0.25000  0.15765  1.0000
