# generated using pymatgen
data_V8Zn24CO
_symmetry_space_group_name_H-M   'P 1'
_cell_length_a   7.64728000
_cell_length_b   7.64728000
_cell_length_c   25.73550000
_cell_angle_alpha   90.00000000
_cell_angle_beta   90.00000000
_cell_angle_gamma   90.00000000
_symmetry_Int_Tables_number   1
_chemical_formula_structural   V8Zn24CO
_chemical_formula_sum   'V8 Zn24 C1 O1'
_cell_volume   1505.03498058
_cell_formula_units_Z   1
loop_
 _symmetry_equiv_pos_site_id
 _symmetry_equiv_pos_as_xyz
  1  'x, y, z'
loop_
 _atom_site_type_symbol
 _atom_site_label
 _atom_site_symmetry_multiplicity
 _atom_site_fract_x
 _atom_site_fract_y
 _atom_site_fract_z
 _atom_site_occupancy
  V  V0  1  0.75000000  0.00000000  0.88857000  1.0
  V  V1  1  0.75000000  0.00000000  0.03714000  1.0
  V  V2  1  0.75000000  0.50000000  0.88857000  1.0
  V  V3  1  0.75000000  0.50000000  0.03714000  1.0
  V  V4  1  0.25000000  0.00000000  0.88857000  1.0
  V  V5  1  0.25000000  0.00000000  0.03714000  1.0
  V  V6  1  0.25000000  0.50000000  0.88857000  1.0
  V  V7  1  0.25000000  0.50000000  0.03714000  1.0
  Zn  Zn8  1  0.75000000  0.25000000  0.96286000  1.0
  Zn  Zn9  1  0.00000000  0.00000000  0.96286000  1.0
  Zn  Zn10  1  0.00000000  0.25000000  0.88857000  1.0
  Zn  Zn11  1  0.75000000  0.25000000  0.11143000  1.0
  Zn  Zn12  1  0.00000000  0.00000000  0.11143000  1.0
  Zn  Zn13  1  0.00000000  0.25000000  0.03714000  1.0
  Zn  Zn14  1  0.75000000  0.75000000  0.96286000  1.0
  Zn  Zn15  1  0.00000000  0.50000000  0.96286000  1.0
  Zn  Zn16  1  0.00000000  0.75000000  0.88857000  1.0
  Zn  Zn17  1  0.75000000  0.75000000  0.11143000  1.0
  Zn  Zn18  1  0.00000000  0.50000000  0.11143000  1.0
  Zn  Zn19  1  0.00000000  0.75000000  0.03714000  1.0
  Zn  Zn20  1  0.25000000  0.25000000  0.96286000  1.0
  Zn  Zn21  1  0.50000000  0.00000000  0.96286000  1.0
  Zn  Zn22  1  0.50000000  0.25000000  0.88857000  1.0
  Zn  Zn23  1  0.25000000  0.25000000  0.11143000  1.0
  Zn  Zn24  1  0.50000000  0.00000000  0.11143000  1.0
  Zn  Zn25  1  0.50000000  0.25000000  0.03714000  1.0
  Zn  Zn26  1  0.25000000  0.75000000  0.96286000  1.0
  Zn  Zn27  1  0.50000000  0.50000000  0.96286000  1.0
  Zn  Zn28  1  0.50000000  0.75000000  0.88857000  1.0
  Zn  Zn29  1  0.25000000  0.75000000  0.11143000  1.0
  Zn  Zn30  1  0.50000000  0.50000000  0.11143000  1.0
  Zn  Zn31  1  0.50000000  0.75000000  0.03714000  1.0
  C  C32  1  0.00000000  0.00000000  0.18526000  1.0
  O  O33  1  0.00000000  0.00000000  0.22994000  1.0
