# generated using pymatgen
data_Mg4Sc4In4Pd4CO
_symmetry_space_group_name_H-M   'P 1'
_cell_length_a   6.76782000
_cell_length_b   6.76782000
_cell_length_c   25.07590000
_cell_angle_alpha   90.00000000
_cell_angle_beta   90.00000000
_cell_angle_gamma   90.00000000
_symmetry_Int_Tables_number   1
_chemical_formula_structural   Mg4Sc4In4Pd4CO
_chemical_formula_sum   'Mg4 Sc4 In4 Pd4 C1 O1'
_cell_volume   1148.56116593
_cell_formula_units_Z   1
loop_
 _symmetry_equiv_pos_site_id
 _symmetry_equiv_pos_as_xyz
  1  'x, y, z'
loop_
 _atom_site_type_symbol
 _atom_site_label
 _atom_site_symmetry_multiplicity
 _atom_site_fract_x
 _atom_site_fract_y
 _atom_site_fract_z
 _atom_site_occupancy
  Mg  Mg0  1  0.75054000  0.25161000  0.96406000  1.0
  Mg  Mg1  1  0.75001000  0.75000000  0.10121000  1.0
  Mg  Mg2  1  0.24999000  0.25000000  0.10121000  1.0
  Mg  Mg3  1  0.24946000  0.74839000  0.96406000  1.0
  Sc  Sc4  1  0.25016000  0.24948000  0.96135000  1.0
  Sc  Sc5  1  0.25001000  0.75000000  0.10121000  1.0
  Sc  Sc6  1  0.74999000  0.25000000  0.10121000  1.0
  Sc  Sc7  1  0.74984000  0.75052000  0.96135000  1.0
  In  In8  1  0.50000000  0.00000000  0.88085000  1.0
  In  In9  1  0.50000000  0.50000000  0.03374000  1.0
  In  In10  1  0.00000000  0.00000000  0.03374000  1.0
  In  In11  1  0.00000000  0.50000000  0.88063000  1.0
  Pd  Pd12  1  0.50000000  0.50000000  0.90272000  1.0
  Pd  Pd13  1  0.50000000  0.00000000  0.03374000  1.0
  Pd  Pd14  1  0.00000000  0.50000000  0.03374000  1.0
  Pd  Pd15  1  0.00000000  0.00000000  0.90660000  1.0
  C  C16  1  0.50000000  0.50000000  0.82247000  1.0
  O  O17  1  0.50000000  0.50000000  0.77658000  1.0
