# generated using pymatgen
data_Mg4Sc4In4Pd4CO
_symmetry_space_group_name_H-M   P2
_cell_length_a   6.76782000
_cell_length_b   25.07590000
_cell_length_c   6.76782000
_cell_angle_alpha   90.00000000
_cell_angle_beta   90.00000000
_cell_angle_gamma   90.00000000
_symmetry_Int_Tables_number   3
_chemical_formula_structural   Mg4Sc4In4Pd4CO
_chemical_formula_sum   'Mg4 Sc4 In4 Pd4 C1 O1'
_cell_volume   1148.56116593
_cell_formula_units_Z   1
loop_
 _symmetry_equiv_pos_site_id
 _symmetry_equiv_pos_as_xyz
  1  'x, y, z'
  2  '-x, y, -z'
loop_
 _atom_site_type_symbol
 _atom_site_label
 _atom_site_symmetry_multiplicity
 _atom_site_fract_x
 _atom_site_fract_y
 _atom_site_fract_z
 _atom_site_occupancy
  Mg  Mg0  2  0.25000000  0.89879000  0.24999000  1.0
  Mg  Mg1  2  0.25161000  0.03594000  0.75054000  1.0
  Sc  Sc2  2  0.24948000  0.03865000  0.25016000  1.0
  Sc  Sc3  2  0.25000000  0.89879000  0.74999000  1.0
  In  In4  1  0.00000000  0.11915000  0.50000000  1.0
  In  In5  1  0.00000000  0.96626000  0.00000000  1.0
  In  In6  1  0.50000000  0.11937000  0.00000000  1.0
  In  In7  1  0.50000000  0.96626000  0.50000000  1.0
  Pd  Pd8  1  0.00000000  0.09340000  0.00000000  1.0
  Pd  Pd9  1  0.00000000  0.96626000  0.50000000  1.0
  Pd  Pd10  1  0.50000000  0.09728000  0.50000000  1.0
  Pd  Pd11  1  0.50000000  0.96626000  0.00000000  1.0
  C  C12  1  0.50000000  0.17753000  0.50000000  1.0
  O  O13  1  0.50000000  0.22342000  0.50000000  1.0
