# generated using pymatgen
data_Li8Mg8Cu8Sn8C
_symmetry_space_group_name_H-M   'P 1'
_cell_length_a   9.16858000
_cell_length_b   6.48317000
_cell_length_c   26.87640000
_cell_angle_alpha   90.00000000
_cell_angle_beta   90.00000000
_cell_angle_gamma   90.00000000
_symmetry_Int_Tables_number   1
_chemical_formula_structural   Li8Mg8Cu8Sn8C
_chemical_formula_sum   'Li8 Mg8 Cu8 Sn8 C1'
_cell_volume   1597.57253076
_cell_formula_units_Z   1
loop_
 _symmetry_equiv_pos_site_id
 _symmetry_equiv_pos_as_xyz
  1  'x, y, z'
loop_
 _atom_site_type_symbol
 _atom_site_label
 _atom_site_symmetry_multiplicity
 _atom_site_fract_x
 _atom_site_fract_y
 _atom_site_fract_z
 _atom_site_occupancy
  Li  Li0  1  0.75001000  1.00000000  0.04264000  1.0
  Li  Li1  1  0.24999000  1.00000000  0.04264000  1.0
  Li  Li2  1  0.00000000  0.50000000  0.12793000  1.0
  Li  Li3  1  0.50000000  0.50000000  0.12793000  1.0
  Li  Li4  1  0.22394000  0.06177000  0.82270000  1.0
  Li  Li5  1  0.77606000  0.06177000  0.82270000  1.0
  Li  Li6  1  0.50000000  0.49831000  0.93957000  1.0
  Li  Li7  1  0.00000000  0.49014000  0.95827000  1.0
  Mg  Mg8  1  0.50000000  0.75000000  0.04264000  1.0
  Mg  Mg9  1  0.00000000  0.75000000  0.04264000  1.0
  Mg  Mg10  1  0.75001000  0.25000000  0.12793000  1.0
  Mg  Mg11  1  0.24999000  0.25000000  0.12793000  1.0
  Mg  Mg12  1  0.00000000  0.76144000  0.87016000  1.0
  Mg  Mg13  1  0.50000000  0.86880000  0.87213000  1.0
  Mg  Mg14  1  0.25417000  0.22239000  0.94400000  1.0
  Mg  Mg15  1  0.74583000  0.22239000  0.94400000  1.0
  Cu  Cu16  1  0.50000000  0.00000000  0.12793000  1.0
  Cu  Cu17  1  0.00000000  1.00000000  0.12793000  1.0
  Cu  Cu18  1  0.25001000  0.50000000  0.04264000  1.0
  Cu  Cu19  1  0.74999000  0.50000000  0.04264000  1.0
  Cu  Cu20  1  0.00000000  0.99971000  0.95922000  1.0
  Cu  Cu21  1  0.50000000  0.99524000  0.96481000  1.0
  Cu  Cu22  1  0.71323000  0.51199000  0.86996000  1.0
  Cu  Cu23  1  0.28677000  0.51199000  0.86996000  1.0
  Sn  Sn24  1  0.50000000  0.25000000  0.04264000  1.0
  Sn  Sn25  1  0.00000000  0.25000000  0.04264000  1.0
  Sn  Sn26  1  0.75001000  0.75000000  0.12793000  1.0
  Sn  Sn27  1  0.24999000  0.75000000  0.12793000  1.0
  Sn  Sn28  1  0.00000000  0.28041000  0.86623000  1.0
  Sn  Sn29  1  0.50000000  0.27704000  0.81196000  1.0
  Sn  Sn30  1  0.24959000  0.75405000  0.95393000  1.0
  Sn  Sn31  1  0.75041000  0.75405000  0.95393000  1.0
  C  C32  1  0.50000000  0.54738000  0.85733000  1.0
