# generated using pymatgen
data_Li16In8Ag8CO
_symmetry_space_group_name_H-M   'P 1'
_cell_length_a   9.43981000
_cell_length_b   6.67495000
_cell_length_c   27.07990000
_cell_angle_alpha   90.00000000
_cell_angle_beta   90.00000000
_cell_angle_gamma   90.00000000
_symmetry_Int_Tables_number   1
_chemical_formula_structural   Li16In8Ag8CO
_chemical_formula_sum   'Li16 In8 Ag8 C1 O1'
_cell_volume   1706.31153326
_cell_formula_units_Z   1
loop_
 _symmetry_equiv_pos_site_id
 _symmetry_equiv_pos_as_xyz
  1  'x, y, z'
loop_
 _atom_site_type_symbol
 _atom_site_label
 _atom_site_symmetry_multiplicity
 _atom_site_fract_x
 _atom_site_fract_y
 _atom_site_fract_z
 _atom_site_occupancy
  Li  Li0  1  0.50000000  0.00000000  0.04357000  1.0
  Li  Li1  1  0.75000000  0.50000000  0.13072000  1.0
  Li  Li2  1  0.00000000  0.00000000  0.04357000  1.0
  Li  Li3  1  0.25000000  0.50000000  0.13072000  1.0
  Li  Li4  1  0.75000000  0.25000000  0.04357000  1.0
  Li  Li5  1  0.25000000  0.25000000  0.04357000  1.0
  Li  Li6  1  0.50000000  0.75000000  0.13072000  1.0
  Li  Li7  1  0.00000000  0.75000000  0.13072000  1.0
  Li  Li8  1  0.00000000  0.98228000  0.87195000  1.0
  Li  Li9  1  0.24864000  0.49304000  0.96308000  1.0
  Li  Li10  1  0.50000000  0.98526000  0.87226000  1.0
  Li  Li11  1  0.75136000  0.49304000  0.96308000  1.0
  Li  Li12  1  0.24904000  0.26697000  0.87248000  1.0
  Li  Li13  1  0.75096000  0.26697000  0.87248000  1.0
  Li  Li14  1  0.00000000  0.74816000  0.95666000  1.0
  Li  Li15  1  0.50000000  0.73568000  0.95512000  1.0
  In  In16  1  0.75000000  0.00000000  0.13072000  1.0
  In  In17  1  0.00000000  0.50000000  0.04357000  1.0
  In  In18  1  0.50000000  0.50000000  0.04357000  1.0
  In  In19  1  0.25000000  0.00000000  0.13072000  1.0
  In  In20  1  0.25073000  0.00598000  0.95771000  1.0
  In  In21  1  0.50000000  0.49435000  0.85787000  1.0
  In  In22  1  0.00000000  0.50884000  0.86335000  1.0
  In  In23  1  0.74927000  0.00598000  0.95771000  1.0
  Ag  Ag24  1  0.00000000  0.25000000  0.13072000  1.0
  Ag  Ag25  1  0.50000000  0.25000000  0.13072000  1.0
  Ag  Ag26  1  0.25000000  0.75000000  0.04357000  1.0
  Ag  Ag27  1  0.75000000  0.75000000  0.04357000  1.0
  Ag  Ag28  1  0.50000000  0.26250000  0.95293000  1.0
  Ag  Ag29  1  0.00000000  0.25589000  0.95326000  1.0
  Ag  Ag30  1  0.74437000  0.72417000  0.87921000  1.0
  Ag  Ag31  1  0.25563000  0.72417000  0.87921000  1.0
  C  C32  1  0.00000000  0.00802000  0.79545000  1.0
  O  O33  1  0.00000000  0.01122000  0.75321000  1.0
