# generated using pymatgen
data_Y8Pd16Pb8CO
_symmetry_space_group_name_H-M   'P 1'
_cell_length_a   9.84289000
_cell_length_b   6.95998000
_cell_length_c   27.38220000
_cell_angle_alpha   90.00000000
_cell_angle_beta   90.00000000
_cell_angle_gamma   90.00000000
_symmetry_Int_Tables_number   1
_chemical_formula_structural   Y8Pd16Pb8CO
_chemical_formula_sum   'Y8 Pd16 Pb8 C1 O1'
_cell_volume   1875.85368820
_cell_formula_units_Z   1
loop_
 _symmetry_equiv_pos_site_id
 _symmetry_equiv_pos_as_xyz
  1  'x, y, z'
loop_
 _atom_site_type_symbol
 _atom_site_label
 _atom_site_symmetry_multiplicity
 _atom_site_fract_x
 _atom_site_fract_y
 _atom_site_fract_z
 _atom_site_occupancy
  Y  Y0  1  0.00000000  0.00000000  0.13480000  1.0
  Y  Y1  1  0.25000000  0.50000000  0.04493000  1.0
  Y  Y2  1  0.75000000  0.50000000  0.04493000  1.0
  Y  Y3  1  0.50000000  1.00000000  0.13480000  1.0
  Y  Y4  1  0.50000000  0.00181000  0.95415000  1.0
  Y  Y5  1  0.74494000  0.50613000  0.86651000  1.0
  Y  Y6  1  0.25506000  0.50613000  0.86651000  1.0
  Y  Y7  1  0.00000000  0.00299000  0.95325000  1.0
  Pd  Pd8  1  0.00000000  0.25000000  0.04493000  1.0
  Pd  Pd9  1  0.50000000  0.75000000  0.04493000  1.0
  Pd  Pd10  1  0.00000000  0.75000000  0.04493000  1.0
  Pd  Pd11  1  0.50000000  0.25000000  0.04493000  1.0
  Pd  Pd12  1  0.75000000  0.75000000  0.13480000  1.0
  Pd  Pd13  1  0.25000000  0.25000000  0.13480000  1.0
  Pd  Pd14  1  0.75000000  0.25000000  0.13480000  1.0
  Pd  Pd15  1  0.25000000  0.75000000  0.13480000  1.0
  Pd  Pd16  1  0.50000000  0.24861000  0.87023000  1.0
  Pd  Pd17  1  0.00000000  0.75145000  0.87192000  1.0
  Pd  Pd18  1  0.50000000  0.75624000  0.86965000  1.0
  Pd  Pd19  1  0.00000000  0.27473000  0.85717000  1.0
  Pd  Pd20  1  0.24986000  0.75488000  0.95153000  1.0
  Pd  Pd21  1  0.75087000  0.24813000  0.94919000  1.0
  Pd  Pd22  1  0.24913000  0.24813000  0.94919000  1.0
  Pd  Pd23  1  0.75014000  0.75488000  0.95153000  1.0
  Pb  Pb24  1  0.75000000  1.00000000  0.04493000  1.0
  Pb  Pb25  1  0.00000000  0.50000000  0.13480000  1.0
  Pb  Pb26  1  0.25000000  1.00000000  0.04493000  1.0
  Pb  Pb27  1  0.50000000  0.50000000  0.13480000  1.0
  Pb  Pb28  1  0.24838000  0.00031000  0.85811000  1.0
  Pb  Pb29  1  0.50000000  0.50021000  0.95565000  1.0
  Pb  Pb30  1  0.75162000  0.00031000  0.85811000  1.0
  Pb  Pb31  1  0.00000000  0.49468000  0.95501000  1.0
  C  C32  1  0.00000000  0.33015000  0.78769000  1.0
  O  O33  1  0.00000000  0.33663000  0.74549000  1.0
