# generated using pymatgen
data_Y8Pd16Pb8CO
_symmetry_space_group_name_H-M   Pm
_cell_length_a   6.95998000
_cell_length_b   9.84289000
_cell_length_c   27.38220000
_cell_angle_alpha   90.00000000
_cell_angle_beta   90.00000000
_cell_angle_gamma   90.00000000
_symmetry_Int_Tables_number   6
_chemical_formula_structural   Y8Pd16Pb8CO
_chemical_formula_sum   'Y8 Pd16 Pb8 C1 O1'
_cell_volume   1875.85368820
_cell_formula_units_Z   1
loop_
 _symmetry_equiv_pos_site_id
 _symmetry_equiv_pos_as_xyz
  1  'x, y, z'
  2  'x, -y, z'
loop_
 _atom_site_type_symbol
 _atom_site_label
 _atom_site_symmetry_multiplicity
 _atom_site_fract_x
 _atom_site_fract_y
 _atom_site_fract_z
 _atom_site_occupancy
  Y  Y0  2  0.50000000  0.25000000  0.95507000  1.0
  Y  Y1  2  0.50613000  0.25506000  0.13349000  1.0
  Y  Y2  1  -0.00000000  0.50000000  0.86520000  1.0
  Y  Y3  1  0.00000000  0.00000000  0.86520000  1.0
  Y  Y4  1  0.00181000  0.50000000  0.04585000  1.0
  Y  Y5  1  0.00299000  0.00000000  0.04675000  1.0
  Pd  Pd6  2  0.24813000  0.24913000  0.05081000  1.0
  Pd  Pd7  2  0.25000000  0.25000000  0.86520000  1.0
  Pd  Pd8  2  0.75000000  0.25000000  0.86520000  1.0
  Pd  Pd9  2  0.75488000  0.24986000  0.04847000  1.0
  Pd  Pd10  1  0.24861000  0.50000000  0.12977000  1.0
  Pd  Pd11  1  0.25000000  0.00000000  0.95507000  1.0
  Pd  Pd12  1  0.25000000  0.50000000  0.95507000  1.0
  Pd  Pd13  1  0.27473000  0.00000000  0.14283000  1.0
  Pd  Pd14  1  0.75000000  0.00000000  0.95507000  1.0
  Pd  Pd15  1  0.75000000  0.50000000  0.95507000  1.0
  Pd  Pd16  1  0.75145000  0.00000000  0.12808000  1.0
  Pd  Pd17  1  0.75624000  0.50000000  0.13035000  1.0
  Pb  Pb18  2  -0.00000000  0.25000000  0.95507000  1.0
  Pb  Pb19  2  0.00031000  0.24838000  0.14189000  1.0
  Pb  Pb20  1  0.49468000  0.00000000  0.04499000  1.0
  Pb  Pb21  1  0.50000000  0.00000000  0.86520000  1.0
  Pb  Pb22  1  0.50000000  0.50000000  0.86520000  1.0
  Pb  Pb23  1  0.50021000  0.50000000  0.04435000  1.0
  C  C24  1  0.33015000  0.00000000  0.21231000  1.0
  O  O25  1  0.33663000  0.00000000  0.25451000  1.0
