# generated using pymatgen
data_Zr8In8Ni16C
_symmetry_space_group_name_H-M   Pm
_cell_length_a   6.34847000
_cell_length_b   8.97809000
_cell_length_c   26.73360000
_cell_angle_alpha   90.00000000
_cell_angle_beta   90.00000000
_cell_angle_gamma   90.00000000
_symmetry_Int_Tables_number   6
_chemical_formula_structural   Zr8In8Ni16C
_chemical_formula_sum   'Zr8 In8 Ni16 C1'
_cell_volume   1523.73860883
_cell_formula_units_Z   1
loop_
 _symmetry_equiv_pos_site_id
 _symmetry_equiv_pos_as_xyz
  1  'x, y, z'
  2  'x, -y, z'
loop_
 _atom_site_type_symbol
 _atom_site_label
 _atom_site_symmetry_multiplicity
 _atom_site_fract_x
 _atom_site_fract_y
 _atom_site_fract_z
 _atom_site_occupancy
  Zr  Zr0  2  0.00000000  0.25000000  0.87406000  1.0
  Zr  Zr1  2  0.98906000  0.25726000  0.04140000  1.0
  Zr  Zr2  1  0.50000000  0.00000000  0.95802000  1.0
  Zr  Zr3  1  0.50000000  0.50000000  0.95802000  1.0
  Zr  Zr4  1  0.50592000  0.50000000  0.12504000  1.0
  Zr  Zr5  1  0.55241000  0.00000000  0.12644000  1.0
  In  In6  2  0.48921000  0.24136000  0.04398000  1.0
  In  In7  2  0.50000000  0.25000000  0.87406000  1.0
  In  In8  1  0.00000000  0.00000000  0.95802000  1.0
  In  In9  1  0.00000000  0.50000000  0.95802000  1.0
  In  In10  1  0.01912000  0.50000000  0.12998000  1.0
  In  In11  1  0.94520000  0.00000000  0.18306000  1.0
  Ni  Ni12  2  0.18499000  0.21030000  0.12344000  1.0
  Ni  Ni13  2  0.25000000  0.25000000  0.95802000  1.0
  Ni  Ni14  2  0.75000000  0.25000000  0.95802000  1.0
  Ni  Ni15  2  0.76333000  0.25594000  0.12308000  1.0
  Ni  Ni16  1  0.20542000  0.00000000  0.05416000  1.0
  Ni  Ni17  1  0.25000000  0.00000000  0.87406000  1.0
  Ni  Ni18  1  0.25000000  0.50000000  0.87406000  1.0
  Ni  Ni19  1  0.27674000  0.50000000  0.04217000  1.0
  Ni  Ni20  1  0.72470000  0.50000000  0.04519000  1.0
  Ni  Ni21  1  0.75000000  0.00000000  0.87406000  1.0
  Ni  Ni22  1  0.75000000  0.50000000  0.87406000  1.0
  Ni  Ni23  1  0.75462000  0.00000000  0.04157000  1.0
  C  C24  1  0.22030000  0.00000000  0.12756000  1.0
