# generated using pymatgen
data_Nb8Ga8Ni16C
_symmetry_space_group_name_H-M   'P 1'
_cell_length_a   6.01786000
_cell_length_b   8.51054000
_cell_length_c   26.38290000
_cell_angle_alpha   90.00000000
_cell_angle_beta   90.00000000
_cell_angle_gamma   90.00000000
_symmetry_Int_Tables_number   1
_chemical_formula_structural   Nb8Ga8Ni16C
_chemical_formula_sum   'Nb8 Ga8 Ni16 C1'
_cell_volume   1351.20650908
_cell_formula_units_Z   1
loop_
 _symmetry_equiv_pos_site_id
 _symmetry_equiv_pos_as_xyz
  1  'x, y, z'
loop_
 _atom_site_type_symbol
 _atom_site_label
 _atom_site_symmetry_multiplicity
 _atom_site_fract_x
 _atom_site_fract_y
 _atom_site_fract_z
 _atom_site_occupancy
  Nb  Nb0  1  0.00000000  0.00000000  0.87903000  1.0
  Nb  Nb1  1  0.50000000  0.25000000  0.95968000  1.0
  Nb  Nb2  1  0.50000000  0.75000000  0.95968000  1.0
  Nb  Nb3  1  0.00000000  0.50000000  0.87903000  1.0
  Nb  Nb4  1  0.00000000  0.50000000  0.04016000  1.0
  Nb  Nb5  1  0.50000000  0.76429000  0.12457000  1.0
  Nb  Nb6  1  0.50000000  0.23571000  0.12457000  1.0
  Nb  Nb7  1  0.00000000  0.00000000  0.03920000  1.0
  Ga  Ga8  1  0.00000000  0.75000000  0.95968000  1.0
  Ga  Ga9  1  0.50000000  0.00000000  0.87903000  1.0
  Ga  Ga10  1  0.00000000  0.25000000  0.95968000  1.0
  Ga  Ga11  1  0.50000000  0.50000000  0.87903000  1.0
  Ga  Ga12  1  0.00000000  0.25753000  0.12028000  1.0
  Ga  Ga13  1  0.50000000  0.50000000  0.03982000  1.0
  Ga  Ga14  1  0.00000000  0.74247000  0.12028000  1.0
  Ga  Ga15  1  0.50000000  0.00000000  0.03995000  1.0
  Ni  Ni16  1  0.25000000  0.00000000  0.95968000  1.0
  Ni  Ni17  1  0.75000000  0.50000000  0.95968000  1.0
  Ni  Ni18  1  0.75000000  0.00000000  0.95968000  1.0
  Ni  Ni19  1  0.25000000  0.50000000  0.95968000  1.0
  Ni  Ni20  1  0.75000000  0.75000000  0.87903000  1.0
  Ni  Ni21  1  0.25000000  0.25000000  0.87903000  1.0
  Ni  Ni22  1  0.25000000  0.75000000  0.87903000  1.0
  Ni  Ni23  1  0.75000000  0.25000000  0.87903000  1.0
  Ni  Ni24  1  0.25483000  0.50000000  0.11644000  1.0
  Ni  Ni25  1  0.79234000  0.00000000  0.12001000  1.0
  Ni  Ni26  1  0.74517000  0.50000000  0.11644000  1.0
  Ni  Ni27  1  0.20766000  0.00000000  0.12001000  1.0
  Ni  Ni28  1  0.73317000  0.24996000  0.04213000  1.0
  Ni  Ni29  1  0.26683000  0.75004000  0.04213000  1.0
  Ni  Ni30  1  0.26683000  0.24996000  0.04213000  1.0
  Ni  Ni31  1  0.73317000  0.75004000  0.04213000  1.0
  C  C32  1  0.50000000  0.00000000  0.14786000  1.0
