# generated using pymatgen
data_Li4Sc4Ga4Ge4C
_symmetry_space_group_name_H-M   Pm
_cell_length_a   5.66960000
_cell_length_b   8.37322000
_cell_length_c   24.25170000
_cell_angle_alpha   90.00000000
_cell_angle_beta   90.00000000
_cell_angle_gamma   90.00000000
_symmetry_Int_Tables_number   6
_chemical_formula_structural   Li4Sc4Ga4Ge4C
_chemical_formula_sum   'Li4 Sc4 Ga4 Ge4 C1'
_cell_volume   1151.29630049
_cell_formula_units_Z   1
loop_
 _symmetry_equiv_pos_site_id
 _symmetry_equiv_pos_as_xyz
  1  'x, y, z'
  2  'x, -y, z'
loop_
 _atom_site_type_symbol
 _atom_site_label
 _atom_site_symmetry_multiplicity
 _atom_site_fract_x
 _atom_site_fract_y
 _atom_site_fract_z
 _atom_site_occupancy
  Li  Li0  1  0.01926000  0.50000000  0.05294000  1.0
  Li  Li1  1  0.50000000  0.00000000  0.91234000  1.0
  Li  Li2  1  0.50000000  0.50000000  0.91234000  1.0
  Li  Li3  1  0.95883000  0.00000000  0.02079000  1.0
  Sc  Sc4  2  0.24630000  0.25000000  0.97078000  1.0
  Sc  Sc5  2  0.71355000  0.19941000  0.09374000  1.0
  Ga  Ga6  1  0.00000000  0.00000000  0.91234000  1.0
  Ga  Ga7  1  0.00000000  0.50000000  0.91234000  1.0
  Ga  Ga8  1  0.44264000  0.00000000  0.02624000  1.0
  Ga  Ga9  1  0.52063000  0.50000000  0.03361000  1.0
  Ge  Ge10  2  0.20326000  0.18858000  0.09956000  1.0
  Ge  Ge11  2  0.74630000  0.25000000  0.97078000  1.0
  C  C12  1  0.95515000  0.00000000  0.10620000  1.0
