# generated using pymatgen
data_Sc4Al4In4Pd4CO
_symmetry_space_group_name_H-M   'P 1'
_cell_length_a   8.33700000
_cell_length_b   5.97945000
_cell_length_c   24.48170000
_cell_angle_alpha   90.00000000
_cell_angle_beta   90.00000000
_cell_angle_gamma   90.00000000
_symmetry_Int_Tables_number   1
_chemical_formula_structural   Sc4Al4In4Pd4CO
_chemical_formula_sum   'Sc4 Al4 In4 Pd4 C1 O1'
_cell_volume   1220.42926158
_cell_formula_units_Z   1
loop_
 _symmetry_equiv_pos_site_id
 _symmetry_equiv_pos_as_xyz
  1  'x, y, z'
loop_
 _atom_site_type_symbol
 _atom_site_label
 _atom_site_symmetry_multiplicity
 _atom_site_fract_x
 _atom_site_fract_y
 _atom_site_fract_z
 _atom_site_occupancy
  Sc  Sc0  1  0.00000000  0.48347000  0.90765000  1.0
  Sc  Sc1  1  0.00000000  0.98197000  0.03051000  1.0
  Sc  Sc2  1  0.50000000  0.51644000  0.91111000  1.0
  Sc  Sc3  1  0.50000000  0.98197000  0.03051000  1.0
  Al  Al4  1  0.00000000  0.96017000  0.91481000  1.0
  Al  Al5  1  0.00000000  0.48197000  0.03051000  1.0
  Al  Al6  1  0.50000000  0.00333000  0.90740000  1.0
  Al  Al7  1  0.50000000  0.48197000  0.03051000  1.0
  In  In8  1  0.25174000  0.24202000  0.96727000  1.0
  In  In9  1  0.25000000  0.72295000  0.09153000  1.0
  In  In10  1  0.74826000  0.24202000  0.96727000  1.0
  In  In11  1  0.75000000  0.72295000  0.09153000  1.0
  Pd  Pd12  1  0.24663000  0.74601000  0.96070000  1.0
  Pd  Pd13  1  0.25000000  0.22295000  0.09153000  1.0
  Pd  Pd14  1  0.75337000  0.74601000  0.96070000  1.0
  Pd  Pd15  1  0.75000000  0.22295000  0.09153000  1.0
  C  C16  1  0.00000000  0.99368000  0.83638000  1.0
  O  O17  1  0.00000000  0.01733000  0.78884000  1.0
