# generated using pymatgen
data_Li4Sc4Al4In4CO
_symmetry_space_group_name_H-M   'P 1'
_cell_length_a   6.04255000
_cell_length_b   8.49254000
_cell_length_c   24.52830000
_cell_angle_alpha   90.00000000
_cell_angle_beta   90.00000000
_cell_angle_gamma   90.00000000
_symmetry_Int_Tables_number   1
_chemical_formula_structural   Li4Sc4Al4In4CO
_chemical_formula_sum   'Li4 Sc4 Al4 In4 C1 O1'
_cell_volume   1258.70890035
_cell_formula_units_Z   1
loop_
 _symmetry_equiv_pos_site_id
 _symmetry_equiv_pos_as_xyz
  1  'x, y, z'
loop_
 _atom_site_type_symbol
 _atom_site_label
 _atom_site_symmetry_multiplicity
 _atom_site_fract_x
 _atom_site_fract_y
 _atom_site_fract_z
 _atom_site_occupancy
  Li  Li0  1  0.76075000  0.25013000  0.03839000  1.0
  Li  Li1  1  0.22019000  0.25000000  0.90769000  1.0
  Li  Li2  1  0.76074000  0.74989000  0.03839000  1.0
  Li  Li3  1  0.22019000  0.75000000  0.90769000  1.0
  Sc  Sc4  1  0.25488000  0.25031000  0.03075000  1.0
  Sc  Sc5  1  0.72019000  0.25000000  0.90769000  1.0
  Sc  Sc6  1  0.25504000  0.74969000  0.03077000  1.0
  Sc  Sc7  1  0.72019000  0.75000000  0.90769000  1.0
  Al  Al8  1  0.00893000  0.99989000  0.08788000  1.0
  Al  Al9  1  0.48013000  0.00000000  0.96923000  1.0
  Al  Al10  1  0.00950000  0.50011000  0.08793000  1.0
  Al  Al11  1  0.48013000  0.50000000  0.96923000  1.0
  In  In12  1  0.52408000  0.00011000  0.09330000  1.0
  In  In13  1  0.98013000  0.00000000  0.96923000  1.0
  In  In14  1  0.52412000  0.49989000  0.09390000  1.0
  In  In15  1  0.98013000  0.50000000  0.96923000  1.0
  C  C16  1  0.47132000  0.00002000  0.23362000  1.0
  O  O17  1  0.52948000  0.99995000  0.27763000  1.0
