# generated using pymatgen
data_Li16Ge8Pd8CO
_symmetry_space_group_name_H-M   'P 1'
_cell_length_a   8.62534000
_cell_length_b   6.09904000
_cell_length_c   26.46900000
_cell_angle_alpha   90.00000000
_cell_angle_beta   90.00000000
_cell_angle_gamma   90.00000000
_symmetry_Int_Tables_number   1
_chemical_formula_structural   Li16Ge8Pd8CO
_chemical_formula_sum   'Li16 Ge8 Pd8 C1 O1'
_cell_volume   1392.43598725
_cell_formula_units_Z   1
loop_
 _symmetry_equiv_pos_site_id
 _symmetry_equiv_pos_as_xyz
  1  'x, y, z'
loop_
 _atom_site_type_symbol
 _atom_site_label
 _atom_site_symmetry_multiplicity
 _atom_site_fract_x
 _atom_site_fract_y
 _atom_site_fract_z
 _atom_site_occupancy
  Li  Li0  1  0.00000000  0.25000000  0.04073000  1.0
  Li  Li1  1  0.50000000  0.75000000  0.04073000  1.0
  Li  Li2  1  0.00000000  0.75000000  0.04073000  1.0
  Li  Li3  1  0.50000000  0.25000000  0.04073000  1.0
  Li  Li4  1  0.75000000  0.75000000  0.12220000  1.0
  Li  Li5  1  0.25000000  0.25000000  0.12220000  1.0
  Li  Li6  1  0.75000000  0.25000000  0.12220000  1.0
  Li  Li7  1  0.25000000  0.75000000  0.12220000  1.0
  Li  Li8  1  0.50000000  0.25099000  0.87105000  1.0
  Li  Li9  1  0.00000000  0.75323000  0.86199000  1.0
  Li  Li10  1  0.50000000  0.75191000  0.85620000  1.0
  Li  Li11  1  0.00000000  0.24814000  0.86923000  1.0
  Li  Li12  1  0.24521000  0.74813000  0.96719000  1.0
  Li  Li13  1  0.74764000  0.25327000  0.96057000  1.0
  Li  Li14  1  0.25236000  0.25327000  0.96057000  1.0
  Li  Li15  1  0.75479000  0.74813000  0.96719000  1.0
  Ge  Ge16  1  0.00000000  0.00000000  0.12220000  1.0
  Ge  Ge17  1  0.25000000  0.50000000  0.04073000  1.0
  Ge  Ge18  1  0.75000000  0.50000000  0.04073000  1.0
  Ge  Ge19  1  0.50000000  0.00000000  0.12220000  1.0
  Ge  Ge20  1  0.50000000  0.97883000  0.95432000  1.0
  Ge  Ge21  1  0.74658000  0.52699000  0.88433000  1.0
  Ge  Ge22  1  0.25342000  0.52699000  0.88433000  1.0
  Ge  Ge23  1  0.00000000  0.99330000  0.95568000  1.0
  Pd  Pd24  1  0.75000000  0.00000000  0.04073000  1.0
  Pd  Pd25  1  0.00000000  0.50000000  0.12220000  1.0
  Pd  Pd26  1  0.25000000  0.00000000  0.04073000  1.0
  Pd  Pd27  1  0.50000000  0.50000000  0.12220000  1.0
  Pd  Pd28  1  0.25508000  0.96473000  0.88938000  1.0
  Pd  Pd29  1  0.50000000  0.52489000  0.95401000  1.0
  Pd  Pd30  1  0.74492000  0.96473000  0.88938000  1.0
  Pd  Pd31  1  0.00000000  0.51049000  0.95133000  1.0
  C  C32  1  0.00000000  0.24574000  0.79014000  1.0
  O  O33  1  0.00000000  0.24349000  0.74698000  1.0
