# generated using pymatgen
data_Li16Ge8Pd8CO
_symmetry_space_group_name_H-M   Pm
_cell_length_a   6.09904000
_cell_length_b   8.62534000
_cell_length_c   26.46900000
_cell_angle_alpha   90.00000000
_cell_angle_beta   90.00000000
_cell_angle_gamma   90.00000000
_symmetry_Int_Tables_number   6
_chemical_formula_structural   Li16Ge8Pd8CO
_chemical_formula_sum   'Li16 Ge8 Pd8 C1 O1'
_cell_volume   1392.43598725
_cell_formula_units_Z   1
loop_
 _symmetry_equiv_pos_site_id
 _symmetry_equiv_pos_as_xyz
  1  'x, y, z'
  2  'x, -y, z'
loop_
 _atom_site_type_symbol
 _atom_site_label
 _atom_site_symmetry_multiplicity
 _atom_site_fract_x
 _atom_site_fract_y
 _atom_site_fract_z
 _atom_site_occupancy
  Li  Li0  2  0.25000000  0.25000000  0.87780000  1.0
  Li  Li1  2  0.25327000  0.25236000  0.03943000  1.0
  Li  Li2  2  0.74813000  0.24521000  0.03281000  1.0
  Li  Li3  2  0.75000000  0.25000000  0.87780000  1.0
  Li  Li4  1  0.24814000  0.00000000  0.13077000  1.0
  Li  Li5  1  0.25000000  0.00000000  0.95927000  1.0
  Li  Li6  1  0.25000000  0.50000000  0.95927000  1.0
  Li  Li7  1  0.25099000  0.50000000  0.12895000  1.0
  Li  Li8  1  0.75000000  0.00000000  0.95927000  1.0
  Li  Li9  1  0.75000000  0.50000000  0.95927000  1.0
  Li  Li10  1  0.75191000  0.50000000  0.14380000  1.0
  Li  Li11  1  0.75323000  0.00000000  0.13801000  1.0
  Ge  Ge12  2  0.50000000  0.25000000  0.95927000  1.0
  Ge  Ge13  2  0.52699000  0.25342000  0.11567000  1.0
  Ge  Ge14  1  0.00000000  0.00000000  0.87780000  1.0
  Ge  Ge15  1  0.00000000  0.50000000  0.87780000  1.0
  Ge  Ge16  1  0.97883000  0.50000000  0.04568000  1.0
  Ge  Ge17  1  0.99330000  0.00000000  0.04432000  1.0
  Pd  Pd18  2  0.00000000  0.25000000  0.95927000  1.0
  Pd  Pd19  2  0.96473000  0.25508000  0.11062000  1.0
  Pd  Pd20  1  0.50000000  0.00000000  0.87780000  1.0
  Pd  Pd21  1  0.50000000  0.50000000  0.87780000  1.0
  Pd  Pd22  1  0.51049000  0.00000000  0.04867000  1.0
  Pd  Pd23  1  0.52489000  0.50000000  0.04599000  1.0
  C  C24  1  0.24574000  0.00000000  0.20986000  1.0
  O  O25  1  0.24349000  0.00000000  0.25302000  1.0
