# generated using pymatgen
data_Li4Y4In4Ge4C
_symmetry_space_group_name_H-M   Pm
_cell_length_a   6.33235000
_cell_length_b   8.49364000
_cell_length_c   24.73290000
_cell_angle_alpha   90.00000000
_cell_angle_beta   90.00000000
_cell_angle_gamma   90.00000000
_symmetry_Int_Tables_number   6
_chemical_formula_structural   Li4Y4In4Ge4C
_chemical_formula_sum   'Li4 Y4 In4 Ge4 C1'
_cell_volume   1330.25163765
_cell_formula_units_Z   1
loop_
 _symmetry_equiv_pos_site_id
 _symmetry_equiv_pos_as_xyz
  1  'x, y, z'
  2  'x, -y, z'
loop_
 _atom_site_type_symbol
 _atom_site_label
 _atom_site_symmetry_multiplicity
 _atom_site_fract_x
 _atom_site_fract_y
 _atom_site_fract_z
 _atom_site_occupancy
  Li  Li0  2  0.04141000  0.25000000  0.03189000  1.0
  Li  Li1  2  0.38405000  0.24468000  0.88851000  1.0
  Y  Y2  1  0.31212000  0.00000000  0.09568000  1.0
  Y  Y3  1  0.31212000  0.50000000  0.09568000  1.0
  Y  Y4  1  0.68504000  0.50000000  0.96355000  1.0
  Y  Y5  1  0.76223000  0.00000000  0.95649000  1.0
  In  In6  1  0.20191000  0.50000000  0.95897000  1.0
  In  In7  1  0.27331000  0.00000000  0.96481000  1.0
  In  In8  1  0.81212000  0.00000000  0.09568000  1.0
  In  In9  1  0.81212000  0.50000000  0.09568000  1.0
  Ge  Ge10  2  0.54141000  0.25000000  0.03189000  1.0
  Ge  Ge11  2  0.92188000  0.27706000  0.88770000  1.0
  C  C12  1  0.91913000  0.50000000  0.88734000  1.0
