data_image0
_chemical_formula_structural       YIrYIrYIrYIrYIrYIrYIrYIr
_chemical_formula_sum              "Y8 Ir8"
_cell_length_a       6.8816
_cell_length_b       6.8816
_cell_length_c       25.1612
_cell_angle_alpha    90
_cell_angle_beta     90
_cell_angle_gamma    90

_space_group_name_H-M_alt    "P 1"
_space_group_IT_number       1

loop_
  _space_group_symop_operation_xyz
  'x, y, z'

loop_
  _atom_site_type_symbol
  _atom_site_label
  _atom_site_symmetry_multiplicity
  _atom_site_fract_x
  _atom_site_fract_y
  _atom_site_fract_z
  _atom_site_occupancy
  Y   Y1        1.0  0.25000  0.25000  0.97838  1.0000
  Ir  Ir1       1.0  0.00000  0.00000  0.91000  1.0000
  Y   Y2        1.0  0.25000  0.25000  0.11513  1.0000
  Ir  Ir2       1.0  0.00000  0.00000  0.04675  1.0000
  Y   Y3        1.0  0.25000  0.75000  0.97838  1.0000
  Ir  Ir3       1.0  0.00000  0.50000  0.91000  1.0000
  Y   Y4        1.0  0.25000  0.75000  0.11513  1.0000
  Ir  Ir4       1.0  0.00000  0.50000  0.04675  1.0000
  Y   Y5        1.0  0.75000  0.25000  0.97838  1.0000
  Ir  Ir5       1.0  0.50000  0.00000  0.91000  1.0000
  Y   Y6        1.0  0.75000  0.25000  0.11513  1.0000
  Ir  Ir6       1.0  0.50000  0.00000  0.04675  1.0000
  Y   Y7        1.0  0.75000  0.75000  0.97838  1.0000
  Ir  Ir7       1.0  0.50000  0.50000  0.91000  1.0000
  Y   Y8        1.0  0.75000  0.75000  0.11513  1.0000
  Ir  Ir8       1.0  0.50000  0.50000  0.04675  1.0000
