data_image0
_chemical_formula_structural       Li4Al4Fe4Pd4CO
_chemical_formula_sum              "Li4 Al4 Fe4 Pd4 C1 O1"
_cell_length_a       5.25393
_cell_length_b       8.60712
_cell_length_c       23.5829
_cell_angle_alpha    90
_cell_angle_beta     90
_cell_angle_gamma    90

_space_group_name_H-M_alt    "P 1"
_space_group_IT_number       1

loop_
  _space_group_symop_operation_xyz
  'x, y, z'

loop_
  _atom_site_type_symbol
  _atom_site_label
  _atom_site_symmetry_multiplicity
  _atom_site_fract_x
  _atom_site_fract_y
  _atom_site_fract_z
  _atom_site_occupancy
  Li  Li1       1.0  0.64594  0.25000  0.97468  1.0000
  Li  Li2       1.0  0.93043  0.25000  0.08459  1.0000
  Li  Li3       1.0  0.64594  0.75000  0.97468  1.0000
  Li  Li4       1.0  0.93721  0.75002  0.08473  1.0000
  Al  Al1       1.0  0.00000  0.00000  0.92404  1.0000
  Al  Al2       1.0  0.28452  0.99983  0.02166  1.0000
  Al  Al3       1.0  0.00000  0.50000  0.92404  1.0000
  Al  Al4       1.0  0.28451  0.50017  0.02166  1.0000
  Fe  Fe1       1.0  0.14594  0.25000  0.97468  1.0000
  Fe  Fe2       1.0  0.41834  0.24998  0.06195  1.0000
  Fe  Fe3       1.0  0.14594  0.75000  0.97468  1.0000
  Fe  Fe4       1.0  0.42628  0.75000  0.06141  1.0000
  Pd  Pd1       1.0  0.50000  0.00000  0.92404  1.0000
  Pd  Pd2       1.0  0.78668  0.99812  0.02742  1.0000
  Pd  Pd3       1.0  0.50000  0.50000  0.92404  1.0000
  Pd  Pd4       1.0  0.78665  0.50188  0.02744  1.0000
  C   C1        1.0  0.96210  0.25001  0.17316  1.0000
  O   O1        1.0  0.97406  0.25002  0.22148  1.0000
