# generated using pymatgen
data_Y8Cu8Sn8Pd8CO
_symmetry_space_group_name_H-M   P1
_cell_length_a   6.76496000
_cell_length_b   9.56710000
_cell_length_c   27.17530000
_cell_angle_alpha   90.00000000
_cell_angle_beta   90.00000000
_cell_angle_gamma   90.00000000
_symmetry_Int_Tables_number   1
_chemical_formula_structural   Y8Cu8Sn8Pd8CO
_chemical_formula_sum   'Y8 Cu8 Sn8 Pd8 C1 O1'
_cell_volume   1758.81391789
_cell_formula_units_Z   1
loop_
 _symmetry_equiv_pos_site_id
 _symmetry_equiv_pos_as_xyz
  1  'x, y, z'
loop_
 _atom_site_type_symbol
 _atom_site_label
 _atom_site_symmetry_multiplicity
 _atom_site_fract_x
 _atom_site_fract_y
 _atom_site_fract_z
 _atom_site_occupancy
  Y  Y0  1  0.25000000  0.00000000  0.95599000  1.0
  Y  Y1  1  0.25000000  0.50000000  0.95599000  1.0
  Y  Y2  1  0.27714000  0.50012000  0.13796000  1.0
  Y  Y3  1  0.27986000  0.99988000  0.14240000  1.0
  Y  Y4  1  0.75000000  0.25000000  0.86798000  1.0
  Y  Y5  1  0.75000000  0.75000000  0.86798000  1.0
  Y  Y6  1  0.76020000  0.75331000  0.04305000  1.0
  Y  Y7  1  0.76032000  0.24671000  0.04306000  1.0
  Cu  Cu8  1  0.00000000  0.00000000  0.86798000  1.0
  Cu  Cu9  1  0.00000000  0.50000000  0.86798000  1.0
  Cu  Cu10  1  0.02244000  0.50004000  0.05122000  1.0
  Cu  Cu11  1  0.04405000  0.99998000  0.05298000  1.0
  Cu  Cu12  1  0.50000000  0.25000000  0.95599000  1.0
  Cu  Cu13  1  0.50000000  0.75000000  0.95599000  1.0
  Cu  Cu14  1  0.54066000  0.25284000  0.13371000  1.0
  Cu  Cu15  1  0.54138000  0.74717000  0.13382000  1.0
  Sn  Sn16  1  0.25000000  0.25000000  0.86798000  1.0
  Sn  Sn17  1  0.25000000  0.75000000  0.86798000  1.0
  Sn  Sn18  1  0.26137000  0.74831000  0.04545000  1.0
  Sn  Sn19  1  0.26143000  0.25167000  0.04543000  1.0
  Sn  Sn20  1  0.75000000  0.00000000  0.95599000  1.0
  Sn  Sn21  1  0.75000000  0.50000000  0.95599000  1.0
  Sn  Sn22  1  0.77080000  0.00009000  0.12971000  1.0
  Sn  Sn23  1  0.77263000  0.49991000  0.13463000  1.0
  Pd  Pd24  1  0.00000000  0.25000000  0.95599000  1.0
  Pd  Pd25  1  0.00000000  0.75000000  0.95599000  1.0
  Pd  Pd26  1  0.01922000  0.74913000  0.12856000  1.0
  Pd  Pd27  1  0.01972000  0.25086000  0.12856000  1.0
  Pd  Pd28  1  0.48966000  0.00000000  0.04543000  1.0
  Pd  Pd29  1  0.50000000  0.00000000  0.86798000  1.0
  Pd  Pd30  1  0.50000000  0.50000000  0.86798000  1.0
  Pd  Pd31  1  0.50330000  0.49997000  0.04595000  1.0
  C  C32  1  0.48177000  0.99998000  0.21905000  1.0
  O  O33  1  0.57458000  0.00002000  0.25462000  1.0
