# generated using pymatgen
data_Ca16Pb16C
_symmetry_space_group_name_H-M   Pmm2
_cell_length_a   9.18716000
_cell_length_b   10.41900000
_cell_length_c   27.81430000
_cell_angle_alpha   90.00000000
_cell_angle_beta   90.00000000
_cell_angle_gamma   90.00000000
_symmetry_Int_Tables_number   25
_chemical_formula_structural   Ca16Pb16C
_chemical_formula_sum   'Ca16 Pb16 C1'
_cell_volume   2662.41316770
_cell_formula_units_Z   1
loop_
 _symmetry_equiv_pos_site_id
 _symmetry_equiv_pos_as_xyz
  1  'x, y, z'
  2  '-x, -y, z'
  3  '-x, y, z'
  4  'x, -y, z'
loop_
 _atom_site_type_symbol
 _atom_site_label
 _atom_site_symmetry_multiplicity
 _atom_site_fract_x
 _atom_site_fract_y
 _atom_site_fract_z
 _atom_site_occupancy
  Ca  Ca0  4  0.25000000  0.25000000  0.14047000  1.0
  Ca  Ca1  4  0.25000000  0.25000000  0.95318000  1.0
  Ca  Ca2  2  0.25000000  0.00000000  0.04682000  1.0
  Ca  Ca3  2  0.25000000  0.00000000  0.85953000  1.0
  Ca  Ca4  2  0.25000000  0.50000000  0.04682000  1.0
  Ca  Ca5  2  0.25000000  0.50000000  0.85953000  1.0
  Pb  Pb6  2  0.00000000  0.25000000  0.04682000  1.0
  Pb  Pb7  2  0.00000000  0.25000000  0.85953000  1.0
  Pb  Pb8  2  0.50000000  0.25000000  0.04682000  1.0
  Pb  Pb9  2  0.50000000  0.25000000  0.85953000  1.0
  Pb  Pb10  1  0.00000000  0.00000000  0.14047000  1.0
  Pb  Pb11  1  0.00000000  0.00000000  0.95318000  1.0
  Pb  Pb12  1  0.00000000  0.50000000  0.14047000  1.0
  Pb  Pb13  1  0.00000000  0.50000000  0.95318000  1.0
  Pb  Pb14  1  0.50000000  0.00000000  0.14047000  1.0
  Pb  Pb15  1  0.50000000  0.00000000  0.95318000  1.0
  Pb  Pb16  1  0.50000000  0.50000000  0.14047000  1.0
  Pb  Pb17  1  0.50000000  0.50000000  0.95318000  1.0
  C  C18  1  0.00000000  0.00000000  0.83077000  1.0
