# generated using pymatgen
data_Ti8Fe16Sn8CO
_symmetry_space_group_name_H-M   'P 1'
_cell_length_a   8.51603000
_cell_length_b   6.02174000
_cell_length_c   26.38700000
_cell_angle_alpha   90.00000000
_cell_angle_beta   90.00000000
_cell_angle_gamma   90.00000000
_symmetry_Int_Tables_number   1
_chemical_formula_structural   Ti8Fe16Sn8CO
_chemical_formula_sum   'Ti8 Fe16 Sn8 C1 O1'
_cell_volume   1353.16015105
_cell_formula_units_Z   1
loop_
 _symmetry_equiv_pos_site_id
 _symmetry_equiv_pos_as_xyz
  1  'x, y, z'
loop_
 _atom_site_type_symbol
 _atom_site_label
 _atom_site_symmetry_multiplicity
 _atom_site_fract_x
 _atom_site_fract_y
 _atom_site_fract_z
 _atom_site_occupancy
  Ti  Ti0  1  0.50000000  0.00000000  0.12103000  1.0
  Ti  Ti1  1  0.75001000  0.50000000  0.04034000  1.0
  Ti  Ti2  1  0.24999000  0.50000000  0.04034000  1.0
  Ti  Ti3  1  0.00000000  1.00000000  0.12103000  1.0
  Ti  Ti4  1  0.00000000  0.99470000  0.95583000  1.0
  Ti  Ti5  1  0.26333000  0.49804000  0.88008000  1.0
  Ti  Ti6  1  0.73667000  0.49804000  0.88008000  1.0
  Ti  Ti7  1  0.50000000  0.99526000  0.95816000  1.0
  Fe  Fe8  1  0.50000000  0.25000000  0.04034000  1.0
  Fe  Fe9  1  0.00000000  0.75000000  0.04034000  1.0
  Fe  Fe10  1  0.50000000  0.75000000  0.04034000  1.0
  Fe  Fe11  1  0.00000000  0.25000000  0.04034000  1.0
  Fe  Fe12  1  0.25001000  0.75000000  0.12103000  1.0
  Fe  Fe13  1  0.75001000  0.25000000  0.12103000  1.0
  Fe  Fe14  1  0.24999000  0.25000000  0.12103000  1.0
  Fe  Fe15  1  0.74999000  0.75000000  0.12103000  1.0
  Fe  Fe16  1  0.00000000  0.27746000  0.87437000  1.0
  Fe  Fe17  1  0.50000000  0.75808000  0.88191000  1.0
  Fe  Fe18  1  0.00000000  0.70124000  0.86911000  1.0
  Fe  Fe19  1  0.50000000  0.25884000  0.87627000  1.0
  Fe  Fe20  1  0.74983000  0.74987000  0.95706000  1.0
  Fe  Fe21  1  0.24795000  0.24433000  0.95628000  1.0
  Fe  Fe22  1  0.75205000  0.24433000  0.95628000  1.0
  Fe  Fe23  1  0.25017000  0.74987000  0.95706000  1.0
  Sn  Sn24  1  0.25001000  1.00000000  0.04034000  1.0
  Sn  Sn25  1  0.50000000  0.50000000  0.12103000  1.0
  Sn  Sn26  1  0.74999000  1.00000000  0.04034000  1.0
  Sn  Sn27  1  0.00000000  0.50000000  0.12103000  1.0
  Sn  Sn28  1  0.75163000  0.99919000  0.86829000  1.0
  Sn  Sn29  1  0.00000000  0.50074000  0.95970000  1.0
  Sn  Sn30  1  0.24837000  0.99919000  0.86829000  1.0
  Sn  Sn31  1  0.50000000  0.49424000  0.96063000  1.0
  C  C32  1  0.50000000  0.35517000  0.81313000  1.0
  O  O33  1  0.50000000  0.40235000  0.76981000  1.0
