# generated using pymatgen
data_Ti8Fe16Sn8CO
_symmetry_space_group_name_H-M   Pm
_cell_length_a   6.02174000
_cell_length_b   8.51603000
_cell_length_c   26.38700000
_cell_angle_alpha   90.00000000
_cell_angle_beta   90.00000000
_cell_angle_gamma   90.00000000
_symmetry_Int_Tables_number   6
_chemical_formula_structural   Ti8Fe16Sn8CO
_chemical_formula_sum   'Ti8 Fe16 Sn8 C1 O1'
_cell_volume   1353.16015105
_cell_formula_units_Z   1
loop_
 _symmetry_equiv_pos_site_id
 _symmetry_equiv_pos_as_xyz
  1  'x, y, z'
  2  'x, -y, z'
loop_
 _atom_site_type_symbol
 _atom_site_label
 _atom_site_symmetry_multiplicity
 _atom_site_fract_x
 _atom_site_fract_y
 _atom_site_fract_z
 _atom_site_occupancy
  Ti  Ti0  2  0.49804000  0.26333000  0.11992000  1.0
  Ti  Ti1  2  0.50000000  0.24999000  0.95966000  1.0
  Ti  Ti2  1  -0.00000000  0.00000000  0.87897000  1.0
  Ti  Ti3  1  0.00000000  0.50000000  0.87897000  1.0
  Ti  Ti4  1  0.99470000  0.00000000  0.04417000  1.0
  Ti  Ti5  1  0.99526000  0.50000000  0.04184000  1.0
  Fe  Fe6  2  0.24433000  0.24795000  0.04372000  1.0
  Fe  Fe7  2  0.25000000  0.24999000  0.87897000  1.0
  Fe  Fe8  2  0.74987000  0.25017000  0.04294000  1.0
  Fe  Fe9  2  0.75000000  0.25001000  0.87897000  1.0
  Fe  Fe10  1  0.25000000  0.00000000  0.95966000  1.0
  Fe  Fe11  1  0.25000000  0.50000000  0.95966000  1.0
  Fe  Fe12  1  0.25884000  0.50000000  0.12373000  1.0
  Fe  Fe13  1  0.27746000  0.00000000  0.12563000  1.0
  Fe  Fe14  1  0.70124000  0.00000000  0.13089000  1.0
  Fe  Fe15  1  0.75000000  0.00000000  0.95966000  1.0
  Fe  Fe16  1  0.75000000  0.50000000  0.95966000  1.0
  Fe  Fe17  1  0.75808000  0.50000000  0.11809000  1.0
  Sn  Sn18  2  -0.00000000  0.25001000  0.95966000  1.0
  Sn  Sn19  2  0.99919000  0.24837000  0.13171000  1.0
  Sn  Sn20  1  0.49424000  0.50000000  0.03937000  1.0
  Sn  Sn21  1  0.50000000  0.00000000  0.87897000  1.0
  Sn  Sn22  1  0.50000000  0.50000000  0.87897000  1.0
  Sn  Sn23  1  0.50074000  0.00000000  0.04030000  1.0
  C  C24  1  0.35517000  0.50000000  0.18687000  1.0
  O  O25  1  0.40235000  0.50000000  0.23019000  1.0
