data_image0
_chemical_formula_structural       ZrZnZrZnZrZnZrZnZrZnZrZnZrZnZrZnC
_chemical_formula_sum              "Zr8 Zn8 C1"
_cell_length_a       6.67495
_cell_length_b       6.67495
_cell_length_c       25.0062
_cell_angle_alpha    90
_cell_angle_beta     90
_cell_angle_gamma    90

_space_group_name_H-M_alt    "P 1"
_space_group_IT_number       1

loop_
  _space_group_symop_operation_xyz
  'x, y, z'

loop_
  _atom_site_type_symbol
  _atom_site_label
  _atom_site_symmetry_multiplicity
  _atom_site_fract_x
  _atom_site_fract_y
  _atom_site_fract_z
  _atom_site_occupancy
  Zr  Zr1       1.0  0.25000  0.25000  0.96113  1.0000
  Zn  Zn1       1.0  0.00000  0.00000  0.89439  1.0000
  Zr  Zr2       1.0  0.25000  0.25000  0.09459  1.0000
  Zn  Zn2       1.0  0.00000  0.00000  0.02786  1.0000
  Zr  Zr3       1.0  0.25000  0.75000  0.96113  1.0000
  Zn  Zn3       1.0  0.00000  0.50000  0.89439  1.0000
  Zr  Zr4       1.0  0.25000  0.75000  0.09459  1.0000
  Zn  Zn4       1.0  0.00000  0.50000  0.02786  1.0000
  Zr  Zr5       1.0  0.75000  0.25000  0.96113  1.0000
  Zn  Zn5       1.0  0.50000  0.00000  0.89439  1.0000
  Zr  Zr6       1.0  0.75000  0.25000  0.09459  1.0000
  Zn  Zn6       1.0  0.50000  0.00000  0.02786  1.0000
  Zr  Zr7       1.0  0.75000  0.75000  0.96113  1.0000
  Zn  Zn7       1.0  0.50000  0.50000  0.89439  1.0000
  Zr  Zr8       1.0  0.75000  0.75000  0.09459  1.0000
  Zn  Zn8       1.0  0.50000  0.50000  0.02786  1.0000
  C   C1        1.0  0.00000  0.00000  0.12659  1.0000
