# generated using pymatgen
data_Li4Mn4Sb4Pd4CO
_symmetry_space_group_name_H-M   Cmm2
_cell_length_a   9.12074410
_cell_length_b   9.12074410
_cell_length_c   24.83700000
_cell_angle_alpha   90.00000000
_cell_angle_beta   90.00000000
_cell_angle_gamma   90.00000000
_symmetry_Int_Tables_number   35
_chemical_formula_structural   Li4Mn4Sb4Pd4CO
_chemical_formula_sum   'Li8 Mn8 Sb8 Pd8 C2 O2'
_cell_volume   2066.13968220
_cell_formula_units_Z   2
loop_
 _symmetry_equiv_pos_site_id
 _symmetry_equiv_pos_as_xyz
  1  'x, y, z'
  2  '-x, -y, z'
  3  '-x, y, z'
  4  'x, -y, z'
  5  'x+1/2, y+1/2, z'
  6  '-x+1/2, -y+1/2, z'
  7  '-x+1/2, y+1/2, z'
  8  'x+1/2, -y+1/2, z'
loop_
 _atom_site_type_symbol
 _atom_site_label
 _atom_site_symmetry_multiplicity
 _atom_site_fract_x
 _atom_site_fract_y
 _atom_site_fract_z
 _atom_site_occupancy
  Li  Li0  4  0.25000000  0.25000000  0.96754000  1.0
  Li  Li1  2  0.00000000  0.00000000  0.10180000  1.0
  Li  Li2  2  0.00000000  0.50000000  0.10142000  1.0
  Mn  Mn3  4  0.25000000  0.25000000  0.09346000  1.0
  Mn  Mn4  2  0.00000000  0.00000000  0.96754000  1.0
  Mn  Mn5  2  0.00000000  0.50000000  0.96754000  1.0
  Sb  Sb6  4  0.00000000  0.25000000  0.90263000  1.0
  Sb  Sb7  4  0.24943500  0.50000000  0.03620000  1.0
  Pd  Pd8  4  0.00000000  0.24979500  0.03121000  1.0
  Pd  Pd9  4  0.25000000  0.00000000  0.90263000  1.0
  C  C10  2  0.00000000  0.00000000  0.18558000  1.0
  O  O11  2  0.00000000  0.00000000  0.23167000  1.0
