# generated using pymatgen
data_Li8Al8Fe8Pd8C
_symmetry_space_group_name_H-M   Pm
_cell_length_a   8.60712000
_cell_length_b   5.67696000
_cell_length_c   26.63180000
_cell_angle_alpha   90.00000000
_cell_angle_beta   90.00000000
_cell_angle_gamma   90.00000000
_symmetry_Int_Tables_number   6
_chemical_formula_structural   Li8Al8Fe8Pd8C
_chemical_formula_sum   'Li8 Al8 Fe8 Pd8 C1'
_cell_volume   1301.29036078
_cell_formula_units_Z   1
loop_
 _symmetry_equiv_pos_site_id
 _symmetry_equiv_pos_as_xyz
  1  'x, y, z'
  2  'x, -y, z'
loop_
 _atom_site_type_symbol
 _atom_site_label
 _atom_site_symmetry_multiplicity
 _atom_site_fract_x
 _atom_site_fract_y
 _atom_site_fract_z
 _atom_site_occupancy
  Li  Li0  1  0.25000000  0.00000000  0.95850000  1.0
  Li  Li1  1  0.25000000  0.50000000  0.95850000  1.0
  Li  Li2  1  0.25002000  0.00000000  0.13047000  1.0
  Li  Li3  1  0.25080000  0.50000000  0.14426000  1.0
  Li  Li4  1  0.74919000  0.50000000  0.14424000  1.0
  Li  Li5  1  0.74998000  0.00000000  0.13044000  1.0
  Li  Li6  1  0.75000000  0.00000000  0.95850000  1.0
  Li  Li7  1  0.75000000  0.50000000  0.95850000  1.0
  Al  Al8  1  0.00000000  0.00000000  0.87549000  1.0
  Al  Al9  1  0.00000000  0.50000000  0.87549000  1.0
  Al  Al10  1  0.50000000  0.00000000  0.87549000  1.0
  Al  Al11  1  0.50000000  0.50000000  0.87549000  1.0
  Al  Al12  1  0.50004000  0.50000000  0.03701000  1.0
  Al  Al13  1  0.50005000  0.00000000  0.03796000  1.0
  Al  Al14  1  0.99997000  0.00000000  0.03628000  1.0
  Al  Al15  1  0.99997000  0.50000000  0.03703000  1.0
  Fe  Fe16  2  0.24709000  0.28044000  0.04684000  1.0
  Fe  Fe17  2  0.25000000  0.25004000  0.87549000  1.0
  Fe  Fe18  2  0.75000000  0.25004000  0.87549000  1.0
  Fe  Fe19  2  0.75292000  0.28036000  0.04684000  1.0
  Pd  Pd20  2  0.00000000  0.25004000  0.95850000  1.0
  Pd  Pd21  2  0.00003000  0.24838000  0.11881000  1.0
  Pd  Pd22  2  0.49997000  0.25181000  0.11511000  1.0
  Pd  Pd23  2  0.50000000  0.25004000  0.95850000  1.0
  C  C24  1  0.99994000  0.50000000  0.16622000  1.0
