# generated using pymatgen
data_Ta4Rh12CO
_symmetry_space_group_name_H-M   'P 1'
_cell_length_a   5.51512000
_cell_length_b   7.79956000
_cell_length_c   24.13630000
_cell_angle_alpha   90.00000000
_cell_angle_beta   90.00000000
_cell_angle_gamma   90.00000000
_symmetry_Int_Tables_number   1
_chemical_formula_structural   Ta4Rh12CO
_chemical_formula_sum   'Ta4 Rh12 C1 O1'
_cell_volume   1038.23523826
_cell_formula_units_Z   1
loop_
 _symmetry_equiv_pos_site_id
 _symmetry_equiv_pos_as_xyz
  1  'x, y, z'
loop_
 _atom_site_type_symbol
 _atom_site_label
 _atom_site_symmetry_multiplicity
 _atom_site_fract_x
 _atom_site_fract_y
 _atom_site_fract_z
 _atom_site_occupancy
  Ta  Ta0  1  0.00000000  0.00000000  0.08569000  1.0
  Ta  Ta1  1  0.49994000  0.00013000  0.96982000  1.0
  Ta  Ta2  1  0.00000000  0.50000000  0.08569000  1.0
  Ta  Ta3  1  0.49969000  0.49983000  0.96982000  1.0
  Rh  Rh4  1  0.50000000  0.00000000  0.08569000  1.0
  Rh  Rh5  1  0.25000000  0.75000000  0.02856000  1.0
  Rh  Rh6  1  0.75000000  0.75000000  0.02856000  1.0
  Rh  Rh7  1  0.00085000  0.00040000  0.97851000  1.0
  Rh  Rh8  1  0.75792000  0.74992000  0.91641000  1.0
  Rh  Rh9  1  0.26453000  0.75002000  0.91779000  1.0
  Rh  Rh10  1  0.50000000  0.50000000  0.08569000  1.0
  Rh  Rh11  1  0.25000000  0.25000000  0.02856000  1.0
  Rh  Rh12  1  0.75000000  0.25000000  0.02856000  1.0
  Rh  Rh13  1  0.00072000  0.49954000  0.97849000  1.0
  Rh  Rh14  1  0.74094000  0.24998000  0.91849000  1.0
  Rh  Rh15  1  0.25600000  0.24988000  0.91853000  1.0
  C  C16  1  0.73421000  0.75005000  0.83880000  1.0
  O  O17  1  0.72124000  0.75004000  0.79092000  1.0
