# generated using pymatgen
data_LiHfInPd
_symmetry_space_group_name_H-M   'P 1'
_cell_length_a   6.51419000
_cell_length_b   4.60623000
_cell_length_c   26.90930000
_cell_angle_alpha   90.00000000
_cell_angle_beta   90.00000000
_cell_angle_gamma   90.00000000
_symmetry_Int_Tables_number   1
_chemical_formula_structural   LiHfInPd
_chemical_formula_sum   'Li4 Hf4 In4 Pd4'
_cell_volume   807.43661863
_cell_formula_units_Z   4
loop_
 _symmetry_equiv_pos_site_id
 _symmetry_equiv_pos_as_xyz
  1  'x, y, z'
loop_
 _atom_site_type_symbol
 _atom_site_label
 _atom_site_symmetry_multiplicity
 _atom_site_fract_x
 _atom_site_fract_y
 _atom_site_fract_z
 _atom_site_occupancy
  Li  Li0  1  0.25000000  0.00000000  0.95721000  1.0
  Li  Li1  1  0.75000000  0.50000000  0.87162000  1.0
  Li  Li2  1  0.18054000  0.00000000  0.17340000  1.0
  Li  Li3  1  0.75715000  0.50000000  0.04429000  1.0
  Hf  Hf4  1  0.00000000  0.00000000  0.87162000  1.0
  Hf  Hf5  1  0.50000000  0.50000000  0.95721000  1.0
  Hf  Hf6  1  0.00889000  0.00000000  0.04887000  1.0
  Hf  Hf7  1  0.47788000  0.50000000  0.12512000  1.0
  In  In8  1  0.00000000  0.50000000  0.95721000  1.0
  In  In9  1  0.50000000  0.00000000  0.87162000  1.0
  In  In10  1  0.99626000  0.50000000  0.13459000  1.0
  In  In11  1  0.49614000  0.00000000  0.04192000  1.0
  Pd  Pd12  1  0.75000000  0.00000000  0.95721000  1.0
  Pd  Pd13  1  0.25000000  0.50000000  0.87162000  1.0
  Pd  Pd14  1  0.72822500  0.00000000  0.12619000  1.0
  Pd  Pd15  1  0.24855000  0.50000000  0.04213000  1.0
