# generated using pymatgen
data_Mg8Ni16Sb8CO
_symmetry_space_group_name_H-M   'P 1'
_cell_length_a   8.78760000
_cell_length_b   6.21377000
_cell_length_c   26.59070000
_cell_angle_alpha   90.00000000
_cell_angle_beta   90.00000000
_cell_angle_gamma   90.00000000
_symmetry_Int_Tables_number   1
_chemical_formula_structural   Mg8Ni16Sb8CO
_chemical_formula_sum   'Mg8 Ni16 Sb8 C1 O1'
_cell_volume   1451.96191334
_cell_formula_units_Z   1
loop_
 _symmetry_equiv_pos_site_id
 _symmetry_equiv_pos_as_xyz
  1  'x, y, z'
loop_
 _atom_site_type_symbol
 _atom_site_label
 _atom_site_symmetry_multiplicity
 _atom_site_fract_x
 _atom_site_fract_y
 _atom_site_fract_z
 _atom_site_occupancy
  Mg  Mg0  1  0.00000000  0.00000000  0.12393000  1.0
  Mg  Mg1  1  0.25000000  0.50000000  0.04131000  1.0
  Mg  Mg2  1  0.75000000  0.50000000  0.04131000  1.0
  Mg  Mg3  1  0.50000000  0.00000000  0.12393000  1.0
  Mg  Mg4  1  0.50000000  0.00154000  0.96193000  1.0
  Mg  Mg5  1  0.73562000  0.50346000  0.86712000  1.0
  Mg  Mg6  1  0.26438000  0.50346000  0.86712000  1.0
  Mg  Mg7  1  0.00000000  0.01052000  0.95783000  1.0
  Ni  Ni8  1  0.00000000  0.25000000  0.04131000  1.0
  Ni  Ni9  1  0.50000000  0.75000000  0.04131000  1.0
  Ni  Ni10  1  0.00000000  0.75000000  0.04131000  1.0
  Ni  Ni11  1  0.50000000  0.25000000  0.04131000  1.0
  Ni  Ni12  1  0.75000000  0.75000000  0.12393000  1.0
  Ni  Ni13  1  0.25000000  0.25000000  0.12393000  1.0
  Ni  Ni14  1  0.75000000  0.25000000  0.12393000  1.0
  Ni  Ni15  1  0.25000000  0.75000000  0.12393000  1.0
  Ni  Ni16  1  0.50000000  0.23207000  0.88468000  1.0
  Ni  Ni17  1  0.00000000  0.75918000  0.88418000  1.0
  Ni  Ni18  1  0.50000000  0.76678000  0.88472000  1.0
  Ni  Ni19  1  0.00000000  0.28628000  0.87112000  1.0
  Ni  Ni20  1  0.24783000  0.74822000  0.95393000  1.0
  Ni  Ni21  1  0.75156000  0.25598000  0.95065000  1.0
  Ni  Ni22  1  0.24844000  0.25598000  0.95065000  1.0
  Ni  Ni23  1  0.75217000  0.74822000  0.95393000  1.0
  Sb  Sb24  1  0.75000000  0.00000000  0.04131000  1.0
  Sb  Sb25  1  0.00000000  0.50000000  0.12393000  1.0
  Sb  Sb26  1  0.25000000  0.00000000  0.04131000  1.0
  Sb  Sb27  1  0.50000000  0.50000000  0.12393000  1.0
  Sb  Sb28  1  0.25016000  0.99542000  0.87013000  1.0
  Sb  Sb29  1  0.50000000  0.50121000  0.95878000  1.0
  Sb  Sb30  1  0.74984000  0.99542000  0.87013000  1.0
  Sb  Sb31  1  0.00000000  0.49988000  0.95904000  1.0
  C  C32  1  0.00000000  0.37241000  0.80837000  1.0
  O  O33  1  0.00000000  0.41746000  0.76585000  1.0
