# generated using pymatgen
data_Mg8Ni16Sb8CO
_symmetry_space_group_name_H-M   Pm
_cell_length_a   6.21377000
_cell_length_b   8.78760000
_cell_length_c   26.59070000
_cell_angle_alpha   90.00000000
_cell_angle_beta   90.00000000
_cell_angle_gamma   90.00000000
_symmetry_Int_Tables_number   6
_chemical_formula_structural   Mg8Ni16Sb8CO
_chemical_formula_sum   'Mg8 Ni16 Sb8 C1 O1'
_cell_volume   1451.96191334
_cell_formula_units_Z   1
loop_
 _symmetry_equiv_pos_site_id
 _symmetry_equiv_pos_as_xyz
  1  'x, y, z'
  2  'x, -y, z'
loop_
 _atom_site_type_symbol
 _atom_site_label
 _atom_site_symmetry_multiplicity
 _atom_site_fract_x
 _atom_site_fract_y
 _atom_site_fract_z
 _atom_site_occupancy
  Mg  Mg0  2  0.50000000  0.25000000  0.95869000  1.0
  Mg  Mg1  2  0.50346000  0.26438000  0.13288000  1.0
  Mg  Mg2  1  0.00000000  0.00000000  0.87607000  1.0
  Mg  Mg3  1  0.00000000  0.50000000  0.87607000  1.0
  Mg  Mg4  1  0.00154000  0.50000000  0.03807000  1.0
  Mg  Mg5  1  0.01052000  0.00000000  0.04217000  1.0
  Ni  Ni6  2  0.25000000  0.25000000  0.87607000  1.0
  Ni  Ni7  2  0.25598000  0.24844000  0.04935000  1.0
  Ni  Ni8  2  0.74822000  0.24783000  0.04607000  1.0
  Ni  Ni9  2  0.75000000  0.25000000  0.87607000  1.0
  Ni  Ni10  1  0.23207000  0.50000000  0.11532000  1.0
  Ni  Ni11  1  0.25000000  0.00000000  0.95869000  1.0
  Ni  Ni12  1  0.25000000  0.50000000  0.95869000  1.0
  Ni  Ni13  1  0.28628000  0.00000000  0.12888000  1.0
  Ni  Ni14  1  0.75000000  0.00000000  0.95869000  1.0
  Ni  Ni15  1  0.75000000  0.50000000  0.95869000  1.0
  Ni  Ni16  1  0.75918000  0.00000000  0.11582000  1.0
  Ni  Ni17  1  0.76678000  0.50000000  0.11528000  1.0
  Sb  Sb18  2  0.00000000  0.25000000  0.95869000  1.0
  Sb  Sb19  2  0.99542000  0.25016000  0.12987000  1.0
  Sb  Sb20  1  0.49988000  0.00000000  0.04096000  1.0
  Sb  Sb21  1  0.50000000  0.00000000  0.87607000  1.0
  Sb  Sb22  1  0.50000000  0.50000000  0.87607000  1.0
  Sb  Sb23  1  0.50121000  0.50000000  0.04122000  1.0
  C  C24  1  0.37241000  0.00000000  0.19163000  1.0
  O  O25  1  0.41746000  0.00000000  0.23415000  1.0
