# generated using pymatgen
data_Li8Ge8Pd16C
_symmetry_space_group_name_H-M   'P 1'
_cell_length_a   6.13924000
_cell_length_b   8.68219000
_cell_length_c   26.51160000
_cell_angle_alpha   90.00000000
_cell_angle_beta   90.00000000
_cell_angle_gamma   90.00000000
_symmetry_Int_Tables_number   1
_chemical_formula_structural   Li8Ge8Pd16C
_chemical_formula_sum   'Li8 Ge8 Pd16 C1'
_cell_volume   1413.12257935
_cell_formula_units_Z   1
loop_
 _symmetry_equiv_pos_site_id
 _symmetry_equiv_pos_as_xyz
  1  'x, y, z'
loop_
 _atom_site_type_symbol
 _atom_site_label
 _atom_site_symmetry_multiplicity
 _atom_site_fract_x
 _atom_site_fract_y
 _atom_site_fract_z
 _atom_site_occupancy
  Li  Li0  1  0.00000000  0.00000000  0.87719000  1.0
  Li  Li1  1  0.50000000  0.25000000  0.95906000  1.0
  Li  Li2  1  0.50000000  0.75000000  0.95906000  1.0
  Li  Li3  1  0.00000000  0.50000000  0.87719000  1.0
  Li  Li4  1  0.00000000  0.50000000  0.03866000  1.0
  Li  Li5  1  0.50000000  0.73796000  0.13501000  1.0
  Li  Li6  1  0.50000000  0.26204000  0.13501000  1.0
  Li  Li7  1  0.00000000  0.00000000  0.04124000  1.0
  Ge  Ge8  1  0.00000000  0.75000000  0.95906000  1.0
  Ge  Ge9  1  0.50000000  0.00000000  0.87719000  1.0
  Ge  Ge10  1  0.00000000  0.25000000  0.95906000  1.0
  Ge  Ge11  1  0.50000000  0.50000000  0.87719000  1.0
  Ge  Ge12  1  0.00000000  0.23493000  0.13213000  1.0
  Ge  Ge13  1  0.50000000  0.50000000  0.04422000  1.0
  Ge  Ge14  1  0.00000000  0.76507000  0.13213000  1.0
  Ge  Ge15  1  0.50000000  0.00000000  0.03372000  1.0
  Pd  Pd16  1  0.25000000  0.00000000  0.95906000  1.0
  Pd  Pd17  1  0.75000000  0.50000000  0.95906000  1.0
  Pd  Pd18  1  0.75000000  0.00000000  0.95906000  1.0
  Pd  Pd19  1  0.25000000  0.50000000  0.95906000  1.0
  Pd  Pd20  1  0.75000000  0.75000000  0.87719000  1.0
  Pd  Pd21  1  0.25000000  0.25000000  0.87719000  1.0
  Pd  Pd22  1  0.25000000  0.75000000  0.87719000  1.0
  Pd  Pd23  1  0.75000000  0.25000000  0.87719000  1.0
  Pd  Pd24  1  0.23008000  0.50000000  0.11897000  1.0
  Pd  Pd25  1  0.71620000  0.00000000  0.11329000  1.0
  Pd  Pd26  1  0.76992000  0.50000000  0.11897000  1.0
  Pd  Pd27  1  0.28380000  0.00000000  0.11329000  1.0
  Pd  Pd28  1  0.75196000  0.25517000  0.04155000  1.0
  Pd  Pd29  1  0.24804000  0.74483000  0.04155000  1.0
  Pd  Pd30  1  0.24804000  0.25517000  0.04155000  1.0
  Pd  Pd31  1  0.75196000  0.74483000  0.04155000  1.0
  C  C32  1  0.00000000  0.00000000  0.15151000  1.0
