# generated using pymatgen
data_Sc8Al8Ag16C
_symmetry_space_group_name_H-M   'P 1'
_cell_length_a   6.65011000
_cell_length_b   9.40467000
_cell_length_c   27.05350000
_cell_angle_alpha   90.00000000
_cell_angle_beta   90.00000000
_cell_angle_gamma   90.00000000
_symmetry_Int_Tables_number   1
_chemical_formula_structural   Sc8Al8Ag16C
_chemical_formula_sum   'Sc8 Al8 Ag16 C1'
_cell_volume   1691.98243219
_cell_formula_units_Z   1
loop_
 _symmetry_equiv_pos_site_id
 _symmetry_equiv_pos_as_xyz
  1  'x, y, z'
loop_
 _atom_site_type_symbol
 _atom_site_label
 _atom_site_symmetry_multiplicity
 _atom_site_fract_x
 _atom_site_fract_y
 _atom_site_fract_z
 _atom_site_occupancy
  Sc  Sc0  1  0.00000000  0.00000000  0.86964000  1.0
  Sc  Sc1  1  0.50000000  0.24999000  0.95655000  1.0
  Sc  Sc2  1  0.50000000  0.75001000  0.95655000  1.0
  Sc  Sc3  1  0.00000000  0.50000000  0.86964000  1.0
  Sc  Sc4  1  0.00000000  0.50000000  0.04555000  1.0
  Sc  Sc5  1  0.50000000  0.77604000  0.12644000  1.0
  Sc  Sc6  1  0.50000000  0.22396000  0.12644000  1.0
  Sc  Sc7  1  0.00000000  0.00000000  0.05244000  1.0
  Al  Al8  1  0.00000000  0.74999000  0.95655000  1.0
  Al  Al9  1  0.50000000  0.00000000  0.86964000  1.0
  Al  Al10  1  0.00000000  0.25001000  0.95655000  1.0
  Al  Al11  1  0.50000000  0.50000000  0.86964000  1.0
  Al  Al12  1  0.00000000  0.25964000  0.12617000  1.0
  Al  Al13  1  0.50000000  0.50000000  0.04192000  1.0
  Al  Al14  1  0.00000000  0.74036000  0.12617000  1.0
  Al  Al15  1  0.50000000  0.00000000  0.04423000  1.0
  Ag  Ag16  1  0.25000000  0.00000000  0.95655000  1.0
  Ag  Ag17  1  0.75000000  0.50000000  0.95655000  1.0
  Ag  Ag18  1  0.75000000  0.00000000  0.95655000  1.0
  Ag  Ag19  1  0.25000000  0.50000000  0.95655000  1.0
  Ag  Ag20  1  0.75000000  0.74999000  0.86964000  1.0
  Ag  Ag21  1  0.25000000  0.25001000  0.86964000  1.0
  Ag  Ag22  1  0.25000000  0.74999000  0.86964000  1.0
  Ag  Ag23  1  0.75000000  0.25001000  0.86964000  1.0
  Ag  Ag24  1  0.25785000  0.50000000  0.13064000  1.0
  Ag  Ag25  1  0.80198000  0.00000000  0.15293000  1.0
  Ag  Ag26  1  0.74215000  0.50000000  0.13064000  1.0
  Ag  Ag27  1  0.19802000  0.00000000  0.15293000  1.0
  Ag  Ag28  1  0.75232000  0.25310000  0.04042000  1.0
  Ag  Ag29  1  0.24768000  0.74690000  0.04042000  1.0
  Ag  Ag30  1  0.24768000  0.25310000  0.04042000  1.0
  Ag  Ag31  1  0.75232000  0.74690000  0.04042000  1.0
  C  C32  1  0.50000000  0.00000000  0.11937000  1.0
