# generated using pymatgen
data_Li8In8Cu8Ge8C
_symmetry_space_group_name_H-M   'P 1'
_cell_length_a   9.18370000
_cell_length_b   6.49386000
_cell_length_c   26.88780000
_cell_angle_alpha   90.00000000
_cell_angle_beta   90.00000000
_cell_angle_gamma   90.00000000
_symmetry_Int_Tables_number   1
_chemical_formula_structural   Li8In8Cu8Ge8C
_chemical_formula_sum   'Li8 In8 Cu8 Ge8 C1'
_cell_volume   1603.52553053
_cell_formula_units_Z   1
loop_
 _symmetry_equiv_pos_site_id
 _symmetry_equiv_pos_as_xyz
  1  'x, y, z'
loop_
 _atom_site_type_symbol
 _atom_site_label
 _atom_site_symmetry_multiplicity
 _atom_site_fract_x
 _atom_site_fract_y
 _atom_site_fract_z
 _atom_site_occupancy
  Li  Li0  1  0.00000000  0.00000000  0.04269000  1.0
  Li  Li1  1  0.50000000  0.00000000  0.04269000  1.0
  Li  Li2  1  0.24999000  0.50000000  0.12808000  1.0
  Li  Li3  1  0.75001000  0.50000000  0.12808000  1.0
  Li  Li4  1  0.50000000  0.90368000  0.86054000  1.0
  Li  Li5  1  0.00000000  0.05897000  0.85908000  1.0
  Li  Li6  1  0.74856000  0.47927000  0.95061000  1.0
  Li  Li7  1  0.25144000  0.47927000  0.95061000  1.0
  In  In8  1  0.74999000  0.25000000  0.04269000  1.0
  In  In9  1  0.25001000  0.25000000  0.04269000  1.0
  In  In10  1  0.00000000  0.75000000  0.12808000  1.0
  In  In11  1  0.50000000  0.75000000  0.12808000  1.0
  In  In12  1  0.26878000  0.27105000  0.84775000  1.0
  In  In13  1  0.73122000  0.27105000  0.84775000  1.0
  In  In14  1  0.50000000  0.74878000  0.95908000  1.0
  In  In15  1  0.00000000  0.76428000  0.95353000  1.0
  Cu  Cu16  1  0.74999000  0.00000000  0.12808000  1.0
  Cu  Cu17  1  0.25001000  0.00000000  0.12808000  1.0
  Cu  Cu18  1  0.50000000  0.50000000  0.04269000  1.0
  Cu  Cu19  1  0.00000000  0.50000000  0.04269000  1.0
  Cu  Cu20  1  0.24832000  0.00952000  0.95705000  1.0
  Cu  Cu21  1  0.75168000  0.00952000  0.95705000  1.0
  Cu  Cu22  1  0.00000000  0.45490000  0.88277000  1.0
  Cu  Cu23  1  0.50000000  0.46718000  0.88715000  1.0
  Ge  Ge24  1  0.74999000  0.75000000  0.04269000  1.0
  Ge  Ge25  1  0.25001000  0.75000000  0.04269000  1.0
  Ge  Ge26  1  0.00000000  0.25000000  0.12808000  1.0
  Ge  Ge27  1  0.50000000  0.25000000  0.12808000  1.0
  Ge  Ge28  1  0.20894000  0.76339000  0.85783000  1.0
  Ge  Ge29  1  0.79106000  0.76339000  0.85783000  1.0
  Ge  Ge30  1  0.50000000  0.19520000  0.95016000  1.0
  Ge  Ge31  1  0.00000000  0.23333000  0.95649000  1.0
  C  C32  1  0.00000000  0.73684000  0.85300000  1.0
