# generated using pymatgen
data_Li4Al4Ge4Pd4C
_symmetry_space_group_name_H-M   Pm
_cell_length_a   5.69495000
_cell_length_b   7.42946000
_cell_length_c   24.27100000
_cell_angle_alpha   90.00000000
_cell_angle_beta   90.00000000
_cell_angle_gamma   90.00000000
_symmetry_Int_Tables_number   6
_chemical_formula_structural   Li4Al4Ge4Pd4C
_chemical_formula_sum   'Li4 Al4 Ge4 Pd4 C1'
_cell_volume   1026.91579672
_cell_formula_units_Z   1
loop_
 _symmetry_equiv_pos_site_id
 _symmetry_equiv_pos_as_xyz
  1  'x, y, z'
  2  'x, -y, z'
loop_
 _atom_site_type_symbol
 _atom_site_label
 _atom_site_symmetry_multiplicity
 _atom_site_fract_x
 _atom_site_fract_y
 _atom_site_fract_z
 _atom_site_occupancy
  Li  Li0  1  0.02540000  0.00000000  0.96662000  1.0
  Li  Li1  1  0.02619000  0.50000000  0.96521000  1.0
  Li  Li2  1  0.50000000  0.00000000  0.08799000  1.0
  Li  Li3  1  0.50000000  0.50000000  0.08799000  1.0
  Al  Al4  1  0.00000000  0.00000000  0.08799000  1.0
  Al  Al5  1  0.00000000  0.50000000  0.08799000  1.0
  Al  Al6  1  0.53282000  0.00000000  0.96849000  1.0
  Al  Al7  1  0.54064000  0.50000000  0.96952000  1.0
  Ge  Ge8  2  0.25264000  0.25002000  0.02933000  1.0
  Ge  Ge9  2  0.80298000  0.25189000  0.89584000  1.0
  Pd  Pd10  2  0.30975000  0.26318000  0.92166000  1.0
  Pd  Pd11  2  0.75264000  0.25002000  0.02933000  1.0
  C  C12  1  0.75689000  0.00000000  0.90450000  1.0
