# generated using pymatgen
data_Li8Y8Sn8Pb8C
_symmetry_space_group_name_H-M   Pm
_cell_length_a   9.64462000
_cell_length_b   9.36828000
_cell_length_c   26.65380000
_cell_angle_alpha   90.00000000
_cell_angle_beta   90.00000000
_cell_angle_gamma   90.00000000
_symmetry_Int_Tables_number   6
_chemical_formula_structural   Li8Y8Sn8Pb8C
_chemical_formula_sum   'Li8 Y8 Sn8 Pb8 C1'
_cell_volume   2408.26413572
_cell_formula_units_Z   1
loop_
 _symmetry_equiv_pos_site_id
 _symmetry_equiv_pos_as_xyz
  1  'x, y, z'
  2  'x, -y, z'
loop_
 _atom_site_type_symbol
 _atom_site_label
 _atom_site_symmetry_multiplicity
 _atom_site_fract_x
 _atom_site_fract_y
 _atom_site_fract_z
 _atom_site_occupancy
  Li  Li0  2  0.00000000  0.25000000  0.87518000  1.0
  Li  Li1  2  0.50000000  0.25000000  0.87518000  1.0
  Li  Li2  2  0.50079000  0.24656000  0.04932000  1.0
  Li  Li3  2  0.99922000  0.24656000  0.04932000  1.0
  Y  Y4  1  0.25000000  0.00000000  0.04388000  1.0
  Y  Y5  1  0.25000000  0.00000000  0.87518000  1.0
  Y  Y6  1  0.25000000  0.50000000  0.87518000  1.0
  Y  Y7  1  0.25001000  0.50000000  0.03635000  1.0
  Y  Y8  1  0.74999000  0.50000000  0.03830000  1.0
  Y  Y9  1  0.75000000  0.00000000  0.87518000  1.0
  Y  Y10  1  0.75000000  0.50000000  0.87518000  1.0
  Y  Y11  1  0.75001000  0.00000000  0.03736000  1.0
  Sn  Sn12  2  0.25000000  0.25000000  0.95839000  1.0
  Sn  Sn13  2  0.25001000  0.26481000  0.12957000  1.0
  Sn  Sn14  2  0.75000000  0.25000000  0.95839000  1.0
  Sn  Sn15  2  0.75000000  0.25180000  0.11865000  1.0
  Pb  Pb16  1  0.00000000  0.00000000  0.95839000  1.0
  Pb  Pb17  1  0.00000000  0.50000000  0.95839000  1.0
  Pb  Pb18  1  0.50000000  0.00000000  0.95839000  1.0
  Pb  Pb19  1  0.50000000  0.50000000  0.95839000  1.0
  Pb  Pb20  1  0.52188000  0.50000000  0.15156000  1.0
  Pb  Pb21  1  0.52736000  0.00000000  0.14241000  1.0
  Pb  Pb22  1  0.97266000  0.00000000  0.14240000  1.0
  Pb  Pb23  1  0.97813000  0.50000000  0.15158000  1.0
  C  C24  1  0.24989000  0.50000000  0.12170000  1.0
