# generated using pymatgen
data_Nb8Co16Sn8C
_symmetry_space_group_name_H-M   Pmm2
_cell_length_a   6.19479000
_cell_length_b   8.76076000
_cell_length_c   26.57060000
_cell_angle_alpha   90.00000000
_cell_angle_beta   90.00000000
_cell_angle_gamma   90.00000000
_symmetry_Int_Tables_number   25
_chemical_formula_structural   Nb8Co16Sn8C
_chemical_formula_sum   'Nb8 Co16 Sn8 C1'
_cell_volume   1442.01485110
_cell_formula_units_Z   1
loop_
 _symmetry_equiv_pos_site_id
 _symmetry_equiv_pos_as_xyz
  1  'x, y, z'
  2  '-x, -y, z'
  3  '-x, y, z'
  4  'x, -y, z'
loop_
 _atom_site_type_symbol
 _atom_site_label
 _atom_site_symmetry_multiplicity
 _atom_site_fract_x
 _atom_site_fract_y
 _atom_site_fract_z
 _atom_site_occupancy
  Nb  Nb0  2  0.00000000  0.25000000  0.95879000  1.0
  Nb  Nb1  2  0.00000000  0.25002000  0.12115000  1.0
  Nb  Nb2  1  0.50000000  0.00000000  0.04586000  1.0
  Nb  Nb3  1  0.50000000  0.00000000  0.87636000  1.0
  Nb  Nb4  1  0.50000000  0.50000000  0.04335000  1.0
  Nb  Nb5  1  0.50000000  0.50000000  0.87636000  1.0
  Co  Co6  4  0.25001000  0.25000000  0.87636000  1.0
  Co  Co7  4  0.25920000  0.25078000  0.04427000  1.0
  Co  Co8  2  0.21809000  0.00000000  0.12288000  1.0
  Co  Co9  2  0.23356000  0.50000000  0.11726000  1.0
  Co  Co10  2  0.24999000  0.00000000  0.95879000  1.0
  Co  Co11  2  0.25001000  0.50000000  0.95879000  1.0
  Sn  Sn12  2  0.50000000  0.25000000  0.95879000  1.0
  Sn  Sn13  2  0.50000000  0.27098000  0.14108000  1.0
  Sn  Sn14  1  0.00000000  0.00000000  0.03929000  1.0
  Sn  Sn15  1  0.00000000  0.00000000  0.87636000  1.0
  Sn  Sn16  1  0.00000000  0.50000000  0.03805000  1.0
  Sn  Sn17  1  0.00000000  0.50000000  0.87636000  1.0
  C  C18  1  0.50000000  0.00000000  0.13313000  1.0
