# generated using pymatgen
data_Ti8Al8Au16CO
_symmetry_space_group_name_H-M   'P 1'
_cell_length_a   6.49880000
_cell_length_b   9.19068000
_cell_length_c   26.89300000
_cell_angle_alpha   90.00000000
_cell_angle_beta   90.00000000
_cell_angle_gamma   90.00000000
_symmetry_Int_Tables_number   1
_chemical_formula_structural   Ti8Al8Au16CO
_chemical_formula_sum   'Ti8 Al8 Au16 C1 O1'
_cell_volume   1606.27562411
_cell_formula_units_Z   1
loop_
 _symmetry_equiv_pos_site_id
 _symmetry_equiv_pos_as_xyz
  1  'x, y, z'
loop_
 _atom_site_type_symbol
 _atom_site_label
 _atom_site_symmetry_multiplicity
 _atom_site_fract_x
 _atom_site_fract_y
 _atom_site_fract_z
 _atom_site_occupancy
  Ti  Ti0  1  0.00000000  0.75000000  0.87184000  1.0
  Ti  Ti1  1  0.50000000  0.00000000  0.95728000  1.0
  Ti  Ti2  1  0.50000000  0.50000000  0.95728000  1.0
  Ti  Ti3  1  0.00000000  0.25000000  0.87184000  1.0
  Ti  Ti4  1  0.00000000  0.25168000  0.04606000  1.0
  Ti  Ti5  1  0.50000000  0.50000000  0.12470000  1.0
  Ti  Ti6  1  0.50000000  0.00000000  0.12620000  1.0
  Ti  Ti7  1  0.00000000  0.74832000  0.04606000  1.0
  Al  Al8  1  0.00000000  0.50000000  0.95728000  1.0
  Al  Al9  1  0.50000000  0.75000000  0.87184000  1.0
  Al  Al10  1  0.00000000  0.00000000  0.95728000  1.0
  Al  Al11  1  0.50000000  0.25000000  0.87184000  1.0
  Al  Al12  1  0.00000000  0.00000000  0.12643000  1.0
  Al  Al13  1  0.50000000  0.24810000  0.04323000  1.0
  Al  Al14  1  0.00000000  0.50000000  0.12602000  1.0
  Al  Al15  1  0.50000000  0.75190000  0.04323000  1.0
  Au  Au16  1  0.25000000  0.75000000  0.95728000  1.0
  Au  Au17  1  0.75000000  0.25000000  0.95728000  1.0
  Au  Au18  1  0.75000000  0.75000000  0.95728000  1.0
  Au  Au19  1  0.25000000  0.25000000  0.95728000  1.0
  Au  Au20  1  0.75000000  0.50000000  0.87184000  1.0
  Au  Au21  1  0.25000000  0.00000000  0.87184000  1.0
  Au  Au22  1  0.25000000  0.50000000  0.87184000  1.0
  Au  Au23  1  0.75000000  0.00000000  0.87184000  1.0
  Au  Au24  1  0.25386000  0.25034000  0.13000000  1.0
  Au  Au25  1  0.74614000  0.74966000  0.13000000  1.0
  Au  Au26  1  0.74614000  0.25034000  0.13000000  1.0
  Au  Au27  1  0.25386000  0.74966000  0.13000000  1.0
  Au  Au28  1  0.75212000  0.00000000  0.04077000  1.0
  Au  Au29  1  0.25307000  0.50000000  0.04063000  1.0
  Au  Au30  1  0.24788000  0.00000000  0.04077000  1.0
  Au  Au31  1  0.74693000  0.50000000  0.04063000  1.0
  C  C32  1  0.50000000  0.00000000  0.20382000  1.0
  O  O33  1  0.50000000  0.00000000  0.24670000  1.0
