# generated using pymatgen
data_Li2InRh
_symmetry_space_group_name_H-M   Pmm2
_cell_length_a   4.48993714
_cell_length_b   4.48993714
_cell_length_c   24.76230000
_cell_angle_alpha   90.00000000
_cell_angle_beta   90.00000000
_cell_angle_gamma   90.00000000
_symmetry_Int_Tables_number   25
_chemical_formula_structural   Li2InRh
_chemical_formula_sum   'Li4 In2 Rh2'
_cell_volume   499.19646681
_cell_formula_units_Z   2
loop_
 _symmetry_equiv_pos_site_id
 _symmetry_equiv_pos_as_xyz
  1  'x, y, z'
  2  '-x, -y, z'
  3  '-x, y, z'
  4  'x, -y, z'
loop_
 _atom_site_type_symbol
 _atom_site_label
 _atom_site_symmetry_multiplicity
 _atom_site_fract_x
 _atom_site_fract_y
 _atom_site_fract_z
 _atom_site_occupancy
  Li  Li0  1  0.00000000  0.00000000  0.03205000  1.0
  Li  Li1  1  0.00000000  0.50000000  0.96419000  1.0
  Li  Li2  1  0.50000000  0.00000000  0.09616000  1.0
  Li  Li3  1  0.50000000  0.50000000  0.89149000  1.0
  In  In4  1  0.00000000  0.50000000  0.09616000  1.0
  In  In5  1  0.50000000  0.00000000  0.96758000  1.0
  Rh  Rh6  1  0.00000000  0.00000000  0.91105500  1.0
  Rh  Rh7  1  0.50000000  0.50000000  0.03205000  1.0
