data_image0
_chemical_formula_structural       Nb8Ga8Ni16C
_chemical_formula_sum              "Nb8 Ga8 Ni16 C1"
_cell_length_a       6.01786
_cell_length_b       8.51054
_cell_length_c       26.3829
_cell_angle_alpha    90
_cell_angle_beta     90
_cell_angle_gamma    90

_space_group_name_H-M_alt    "P 1"
_space_group_IT_number       1

loop_
  _space_group_symop_operation_xyz
  'x, y, z'

loop_
  _atom_site_type_symbol
  _atom_site_label
  _atom_site_symmetry_multiplicity
  _atom_site_fract_x
  _atom_site_fract_y
  _atom_site_fract_z
  _atom_site_occupancy
  Nb  Nb1       1.0  0.00000  0.00000  0.87903  1.0000
  Nb  Nb2       1.0  0.50000  0.25000  0.95968  1.0000
  Nb  Nb3       1.0  0.50000  0.75000  0.95968  1.0000
  Nb  Nb4       1.0  0.00000  0.50000  0.87903  1.0000
  Nb  Nb5       1.0  0.99585  0.50785  0.04460  1.0000
  Nb  Nb6       1.0  0.44643  0.74997  0.11908  1.0000
  Nb  Nb7       1.0  0.49849  0.25005  0.11231  1.0000
  Nb  Nb8       1.0  0.99583  0.99213  0.04459  1.0000
  Ga  Ga1       1.0  0.00000  0.75000  0.95968  1.0000
  Ga  Ga2       1.0  0.50000  0.00000  0.87903  1.0000
  Ga  Ga3       1.0  0.00000  0.25000  0.95968  1.0000
  Ga  Ga4       1.0  0.50000  0.50000  0.87903  1.0000
  Ga  Ga5       1.0  0.90318  0.24995  0.14556  1.0000
  Ga  Ga6       1.0  0.49122  0.49386  0.03955  1.0000
  Ga  Ga7       1.0  0.98762  0.75003  0.12467  1.0000
  Ga  Ga8       1.0  0.49118  0.00614  0.03955  1.0000
  Ni  Ni1       1.0  0.25000  0.00000  0.95968  1.0000
  Ni  Ni2       1.0  0.75000  0.50000  0.95968  1.0000
  Ni  Ni3       1.0  0.75000  0.00000  0.95968  1.0000
  Ni  Ni4       1.0  0.25000  0.50000  0.95968  1.0000
  Ni  Ni5       1.0  0.75000  0.75000  0.87903  1.0000
  Ni  Ni6       1.0  0.25000  0.25000  0.87903  1.0000
  Ni  Ni7       1.0  0.25000  0.75000  0.87903  1.0000
  Ni  Ni8       1.0  0.75000  0.25000  0.87903  1.0000
  Ni  Ni9       1.0  0.20092  0.48063  0.12947  1.0000
  Ni  Ni10      1.0  0.71908  0.98734  0.11838  1.0000
  Ni  Ni11      1.0  0.71918  0.51265  0.11840  1.0000
  Ni  Ni12      1.0  0.20108  0.01937  0.12944  1.0000
  Ni  Ni13      1.0  0.78100  0.24999  0.03543  1.0000
  Ni  Ni14      1.0  0.26103  0.74998  0.03587  1.0000
  Ni  Ni15      1.0  0.22152  0.25000  0.03833  1.0000
  Ni  Ni16      1.0  0.72178  0.74999  0.04651  1.0000
  C   C1        1.0  0.22248  0.25001  0.15139  1.0000
