# generated using pymatgen
data_Nb8Ga8Ni16C
_symmetry_space_group_name_H-M   'P 1'
_cell_length_a   6.01786000
_cell_length_b   8.51054000
_cell_length_c   26.38290000
_cell_angle_alpha   90.00000000
_cell_angle_beta   90.00000000
_cell_angle_gamma   90.00000000
_symmetry_Int_Tables_number   1
_chemical_formula_structural   Nb8Ga8Ni16C
_chemical_formula_sum   'Nb8 Ga8 Ni16 C1'
_cell_volume   1351.20650908
_cell_formula_units_Z   1
loop_
 _symmetry_equiv_pos_site_id
 _symmetry_equiv_pos_as_xyz
  1  'x, y, z'
loop_
 _atom_site_type_symbol
 _atom_site_label
 _atom_site_symmetry_multiplicity
 _atom_site_fract_x
 _atom_site_fract_y
 _atom_site_fract_z
 _atom_site_occupancy
  Nb  Nb0  1  0.00000000  0.00000000  0.87903000  1.0
  Nb  Nb1  1  0.50000000  0.25000000  0.95968000  1.0
  Nb  Nb2  1  0.50000000  0.75000000  0.95968000  1.0
  Nb  Nb3  1  0.00000000  0.50000000  0.87903000  1.0
  Nb  Nb4  1  0.99585000  0.50785000  0.04460000  1.0
  Nb  Nb5  1  0.44643000  0.74997000  0.11908000  1.0
  Nb  Nb6  1  0.49849000  0.25005000  0.11231000  1.0
  Nb  Nb7  1  0.99583000  0.99213000  0.04459000  1.0
  Ga  Ga8  1  0.00000000  0.75000000  0.95968000  1.0
  Ga  Ga9  1  0.50000000  0.00000000  0.87903000  1.0
  Ga  Ga10  1  0.00000000  0.25000000  0.95968000  1.0
  Ga  Ga11  1  0.50000000  0.50000000  0.87903000  1.0
  Ga  Ga12  1  0.90318000  0.24995000  0.14556000  1.0
  Ga  Ga13  1  0.49122000  0.49386000  0.03955000  1.0
  Ga  Ga14  1  0.98762000  0.75003000  0.12467000  1.0
  Ga  Ga15  1  0.49118000  0.00614000  0.03955000  1.0
  Ni  Ni16  1  0.25000000  0.00000000  0.95968000  1.0
  Ni  Ni17  1  0.75000000  0.50000000  0.95968000  1.0
  Ni  Ni18  1  0.75000000  0.00000000  0.95968000  1.0
  Ni  Ni19  1  0.25000000  0.50000000  0.95968000  1.0
  Ni  Ni20  1  0.75000000  0.75000000  0.87903000  1.0
  Ni  Ni21  1  0.25000000  0.25000000  0.87903000  1.0
  Ni  Ni22  1  0.25000000  0.75000000  0.87903000  1.0
  Ni  Ni23  1  0.75000000  0.25000000  0.87903000  1.0
  Ni  Ni24  1  0.20092000  0.48063000  0.12947000  1.0
  Ni  Ni25  1  0.71908000  0.98734000  0.11838000  1.0
  Ni  Ni26  1  0.71918000  0.51265000  0.11840000  1.0
  Ni  Ni27  1  0.20108000  0.01937000  0.12944000  1.0
  Ni  Ni28  1  0.78100000  0.24999000  0.03543000  1.0
  Ni  Ni29  1  0.26103000  0.74998000  0.03587000  1.0
  Ni  Ni30  1  0.22152000  0.25000000  0.03833000  1.0
  Ni  Ni31  1  0.72178000  0.74999000  0.04651000  1.0
  C  C32  1  0.22248000  0.25001000  0.15139000  1.0
