# generated using pymatgen
data_Li4Cu4Sb4Pd4CO
_symmetry_space_group_name_H-M   'P 1'
_cell_length_a   6.37250000
_cell_length_b   6.37250000
_cell_length_c   24.77940000
_cell_angle_alpha   90.00000000
_cell_angle_beta   90.00000000
_cell_angle_gamma   90.00000000
_symmetry_Int_Tables_number   1
_chemical_formula_structural   Li4Cu4Sb4Pd4CO
_chemical_formula_sum   'Li4 Cu4 Sb4 Pd4 C1 O1'
_cell_volume   1006.26061462
_cell_formula_units_Z   1
loop_
 _symmetry_equiv_pos_site_id
 _symmetry_equiv_pos_as_xyz
  1  'x, y, z'
loop_
 _atom_site_type_symbol
 _atom_site_label
 _atom_site_symmetry_multiplicity
 _atom_site_fract_x
 _atom_site_fract_y
 _atom_site_fract_z
 _atom_site_occupancy
  Li  Li0  1  0.25000000  0.25000000  0.96785000  1.0
  Li  Li1  1  0.24971000  0.75079000  0.09818000  1.0
  Li  Li2  1  0.75043000  0.25305000  0.09717000  1.0
  Li  Li3  1  0.75000000  0.75000000  0.96785000  1.0
  Cu  Cu4  1  0.00000000  0.00000000  0.90356000  1.0
  Cu  Cu5  1  0.99767000  0.50350000  0.03648000  1.0
  Cu  Cu6  1  0.49860000  0.00053000  0.03743000  1.0
  Cu  Cu7  1  0.50000000  0.50000000  0.90356000  1.0
  Sb  Sb8  1  0.75000000  0.25000000  0.96785000  1.0
  Sb  Sb9  1  0.75009000  0.75290000  0.09815000  1.0
  Sb  Sb10  1  0.24914000  0.25492000  0.09712000  1.0
  Sb  Sb11  1  0.25000000  0.75000000  0.96785000  1.0
  Pd  Pd12  1  0.00000000  0.50000000  0.90356000  1.0
  Pd  Pd13  1  0.00144000  0.00050000  0.03557000  1.0
  Pd  Pd14  1  0.50236000  0.50313000  0.03526000  1.0
  Pd  Pd15  1  0.50000000  0.00000000  0.90356000  1.0
  C  C16  1  0.25507000  0.17277000  0.26128000  1.0
  O  O17  1  0.24770000  0.28320000  0.29723000  1.0
