# generated using pymatgen
data_InAg
_symmetry_space_group_name_H-M   'P 1'
_cell_length_a   7.14855000
_cell_length_b   10.10960000
_cell_length_c   27.58220000
_cell_angle_alpha   90.00000000
_cell_angle_beta   90.00000000
_cell_angle_gamma   90.00000000
_symmetry_Int_Tables_number   1
_chemical_formula_structural   InAg
_chemical_formula_sum   'In16 Ag16'
_cell_volume   1993.33748994
_cell_formula_units_Z   16
loop_
 _symmetry_equiv_pos_site_id
 _symmetry_equiv_pos_as_xyz
  1  'x, y, z'
loop_
 _atom_site_type_symbol
 _atom_site_label
 _atom_site_symmetry_multiplicity
 _atom_site_fract_x
 _atom_site_fract_y
 _atom_site_fract_z
 _atom_site_occupancy
  In  In0  1  0.25000000  0.25000000  0.86255000  1.0
  In  In1  1  0.25000000  0.00000000  0.95418000  1.0
  In  In2  1  0.25003000  0.24997000  0.04492000  1.0
  In  In3  1  0.24956000  0.50058000  0.14596000  1.0
  In  In4  1  0.25000000  0.75000000  0.86255000  1.0
  In  In5  1  0.25000000  0.50000000  0.95418000  1.0
  In  In6  1  0.24998000  0.75013000  0.04466000  1.0
  In  In7  1  0.25047000  0.99930000  0.14567000  1.0
  In  In8  1  0.75000000  0.25000000  0.86255000  1.0
  In  In9  1  0.75000000  0.00000000  0.95418000  1.0
  In  In10  1  0.75009000  0.25002000  0.04496000  1.0
  In  In11  1  0.75100000  0.50034000  0.14598000  1.0
  In  In12  1  0.75000000  0.75000000  0.86255000  1.0
  In  In13  1  0.75000000  0.50000000  0.95418000  1.0
  In  In14  1  0.75003000  0.75012000  0.04463000  1.0
  In  In15  1  0.74943000  0.99948000  0.14570000  1.0
  Ag  Ag16  1  0.00000000  0.00000000  0.86255000  1.0
  Ag  Ag17  1  0.00000000  0.25000000  0.95418000  1.0
  Ag  Ag18  1  0.99993000  0.50007000  0.04713000  1.0
  Ag  Ag19  1  0.00023000  0.24946000  0.13206000  1.0
  Ag  Ag20  1  0.00000000  0.50000000  0.86255000  1.0
  Ag  Ag21  1  0.00000000  0.75000000  0.95418000  1.0
  Ag  Ag22  1  0.99998000  0.00004000  0.04737000  1.0
  Ag  Ag23  1  0.99984000  0.75066000  0.13178000  1.0
  Ag  Ag24  1  0.50000000  0.00000000  0.86255000  1.0
  Ag  Ag25  1  0.50000000  0.25000000  0.95418000  1.0
  Ag  Ag26  1  0.50005000  0.49995000  0.04763000  1.0
  Ag  Ag27  1  0.49987000  0.25039000  0.13206000  1.0
  Ag  Ag28  1  0.50000000  0.50000000  0.86255000  1.0
  Ag  Ag29  1  0.50000000  0.75000000  0.95418000  1.0
  Ag  Ag30  1  0.50003000  0.99993000  0.04718000  1.0
  Ag  Ag31  1  0.50025000  0.74960000  0.13176000  1.0
