# generated using pymatgen
data_Mg4In4Ni8CO
_symmetry_space_group_name_H-M   P1
_cell_length_a   6.24448000
_cell_length_b   6.24448000
_cell_length_c   24.68340000
_cell_angle_alpha   90.00000000
_cell_angle_beta   90.00000000
_cell_angle_gamma   90.00000000
_symmetry_Int_Tables_number   1
_chemical_formula_structural   Mg4In4Ni8CO
_chemical_formula_sum   'Mg4 In4 Ni8 C1 O1'
_cell_volume   962.49291001
_cell_formula_units_Z   1
loop_
 _symmetry_equiv_pos_site_id
 _symmetry_equiv_pos_as_xyz
  1  'x, y, z'
loop_
 _atom_site_type_symbol
 _atom_site_label
 _atom_site_symmetry_multiplicity
 _atom_site_fract_x
 _atom_site_fract_y
 _atom_site_fract_z
 _atom_site_occupancy
  Mg  Mg0  1  0.00000000  0.50000000  0.96838000  1.0
  Mg  Mg1  1  0.00021000  0.99802000  0.09617000  1.0
  Mg  Mg2  1  0.50000000  0.00000000  0.96838000  1.0
  Mg  Mg3  1  0.50126000  0.50103000  0.09573000  1.0
  In  In4  1  0.00000000  0.00000000  0.96838000  1.0
  In  In5  1  0.00131000  0.49979000  0.09658000  1.0
  In  In6  1  0.50000000  0.50000000  0.96838000  1.0
  In  In7  1  0.50167000  0.99966000  0.09718000  1.0
  Ni  Ni8  1  0.25000000  0.25000000  0.90513000  1.0
  Ni  Ni9  1  0.25000000  0.75000000  0.90513000  1.0
  Ni  Ni10  1  0.25151000  0.75234000  0.03535000  1.0
  Ni  Ni11  1  0.25200000  0.24865000  0.03552000  1.0
  Ni  Ni12  1  0.74996000  0.24921000  0.03554000  1.0
  Ni  Ni13  1  0.75000000  0.25000000  0.90513000  1.0
  Ni  Ni14  1  0.75000000  0.75000000  0.90513000  1.0
  Ni  Ni15  1  0.75020000  0.75113000  0.03529000  1.0
  C  C16  1  0.91535000  0.49999000  0.26089000  1.0
  O  O17  1  0.05306000  0.50165000  0.29099000  1.0
