# generated using pymatgen
data_Hf8Ga8Co16C
_symmetry_space_group_name_H-M   'P 1'
_cell_length_a   6.02813000
_cell_length_b   8.52506000
_cell_length_c   26.39380000
_cell_angle_alpha   90.00000000
_cell_angle_beta   90.00000000
_cell_angle_gamma   90.00000000
_symmetry_Int_Tables_number   1
_chemical_formula_structural   Hf8Ga8Co16C
_chemical_formula_sum   'Hf8 Ga8 Co16 C1'
_cell_volume   1356.38186730
_cell_formula_units_Z   1
loop_
 _symmetry_equiv_pos_site_id
 _symmetry_equiv_pos_as_xyz
  1  'x, y, z'
loop_
 _atom_site_type_symbol
 _atom_site_label
 _atom_site_symmetry_multiplicity
 _atom_site_fract_x
 _atom_site_fract_y
 _atom_site_fract_z
 _atom_site_occupancy
  Hf  Hf0  1  0.00000000  0.00000000  0.87888000  1.0
  Hf  Hf1  1  0.50000000  0.25000000  0.95963000  1.0
  Hf  Hf2  1  0.50000000  0.75000000  0.95963000  1.0
  Hf  Hf3  1  0.00000000  0.50000000  0.87888000  1.0
  Hf  Hf4  1  0.00000000  0.50000000  0.04037000  1.0
  Hf  Hf5  1  0.50000000  0.75000000  0.12112000  1.0
  Hf  Hf6  1  0.50000000  0.25000000  0.12112000  1.0
  Hf  Hf7  1  0.00000000  0.00000000  0.04037000  1.0
  Ga  Ga8  1  0.00000000  0.75000000  0.95963000  1.0
  Ga  Ga9  1  0.50000000  0.00000000  0.87888000  1.0
  Ga  Ga10  1  0.00000000  0.25000000  0.95963000  1.0
  Ga  Ga11  1  0.50000000  0.50000000  0.87888000  1.0
  Ga  Ga12  1  0.00000000  0.25000000  0.12112000  1.0
  Ga  Ga13  1  0.50000000  0.50000000  0.04037000  1.0
  Ga  Ga14  1  0.00000000  0.75000000  0.12112000  1.0
  Ga  Ga15  1  0.50000000  0.00000000  0.04037000  1.0
  Co  Co16  1  0.25000000  0.00000000  0.95963000  1.0
  Co  Co17  1  0.75000000  0.50000000  0.95963000  1.0
  Co  Co18  1  0.75000000  0.00000000  0.95963000  1.0
  Co  Co19  1  0.25000000  0.50000000  0.95963000  1.0
  Co  Co20  1  0.75000000  0.75000000  0.87888000  1.0
  Co  Co21  1  0.25000000  0.25000000  0.87888000  1.0
  Co  Co22  1  0.25000000  0.75000000  0.87888000  1.0
  Co  Co23  1  0.75000000  0.25000000  0.87888000  1.0
  Co  Co24  1  0.25000000  0.50000000  0.12112000  1.0
  Co  Co25  1  0.75000000  0.00000000  0.12112000  1.0
  Co  Co26  1  0.75000000  0.50000000  0.12112000  1.0
  Co  Co27  1  0.25000000  0.00000000  0.12112000  1.0
  Co  Co28  1  0.75000000  0.25000000  0.04037000  1.0
  Co  Co29  1  0.25000000  0.75000000  0.04037000  1.0
  Co  Co30  1  0.25000000  0.25000000  0.04037000  1.0
  Co  Co31  1  0.75000000  0.75000000  0.04037000  1.0
  C  C32  1  0.00000000  0.00000000  0.15143000  1.0
