# generated using pymatgen
data_Li8Mg8Ag8Pb8CO
_symmetry_space_group_name_H-M   P1
_cell_length_a   6.87998000
_cell_length_b   9.72976000
_cell_length_c   27.29730000
_cell_angle_alpha   90.00000000
_cell_angle_beta   90.00000000
_cell_angle_gamma   90.00000000
_symmetry_Int_Tables_number   1
_chemical_formula_structural   Li8Mg8Ag8Pb8CO
_chemical_formula_sum   'Li8 Mg8 Ag8 Pb8 C1 O1'
_cell_volume   1827.29639029
_cell_formula_units_Z   1
loop_
 _symmetry_equiv_pos_site_id
 _symmetry_equiv_pos_as_xyz
  1  'x, y, z'
loop_
 _atom_site_type_symbol
 _atom_site_label
 _atom_site_symmetry_multiplicity
 _atom_site_fract_x
 _atom_site_fract_y
 _atom_site_fract_z
 _atom_site_occupancy
  Li  Li0  1  0.23482000  0.75000000  0.04943000  1.0
  Li  Li1  1  0.23896000  0.25000000  0.04742000  1.0
  Li  Li2  1  0.25000000  0.25000000  0.86634000  1.0
  Li  Li3  1  0.25000000  0.75000000  0.86634000  1.0
  Li  Li4  1  0.75000000  0.00000000  0.95545000  1.0
  Li  Li5  1  0.75000000  0.50000000  0.95545000  1.0
  Li  Li6  1  0.75068000  0.00147000  0.13721000  1.0
  Li  Li7  1  0.75068000  0.49853000  0.13721000  1.0
  Mg  Mg8  1  0.24583000  0.50198000  0.14029000  1.0
  Mg  Mg9  1  0.24583000  0.99803000  0.14029000  1.0
  Mg  Mg10  1  0.25000000  0.00000000  0.95545000  1.0
  Mg  Mg11  1  0.25000000  0.50000000  0.95545000  1.0
  Mg  Mg12  1  0.75000000  0.25000000  0.86634000  1.0
  Mg  Mg13  1  0.75000000  0.75000000  0.86634000  1.0
  Mg  Mg14  1  0.76583000  0.25000000  0.05051000  1.0
  Mg  Mg15  1  0.76929000  0.75000000  0.05080000  1.0
  Ag  Ag16  1  0.00000000  0.00000000  0.86634000  1.0
  Ag  Ag17  1  0.00000000  0.50000000  0.86634000  1.0
  Ag  Ag18  1  0.00605000  0.00117000  0.05084000  1.0
  Ag  Ag19  1  0.00606000  0.49883000  0.05084000  1.0
  Ag  Ag20  1  0.48264000  0.25000000  0.13125000  1.0
  Ag  Ag21  1  0.48831000  0.75000000  0.13185000  1.0
  Ag  Ag22  1  0.50000000  0.25000000  0.95545000  1.0
  Ag  Ag23  1  0.50000000  0.75000000  0.95545000  1.0
  Pb  Pb24  1  -0.00000000  0.25000000  0.95545000  1.0
  Pb  Pb25  1  -0.00000000  0.75000000  0.95545000  1.0
  Pb  Pb26  1  0.49959000  0.50111000  0.04860000  1.0
  Pb  Pb27  1  0.49960000  0.99889000  0.04860000  1.0
  Pb  Pb28  1  0.50000000  0.00000000  0.86634000  1.0
  Pb  Pb29  1  0.50000000  0.50000000  0.86634000  1.0
  Pb  Pb30  1  0.98773000  0.75000000  0.15073000  1.0
  Pb  Pb31  1  0.99399000  0.25001000  0.14945000  1.0
  C  C32  1  0.05948000  0.24989000  0.29331000  1.0
  O  O33  1  0.95750000  0.25003000  0.32604000  1.0
