# generated using pymatgen
data_ZrAlCu2
_symmetry_space_group_name_H-M   Pmm2
_cell_length_a   4.43564500
_cell_length_b   6.27295000
_cell_length_c   26.65350000
_cell_angle_alpha   90.00000000
_cell_angle_beta   90.00000000
_cell_angle_gamma   90.00000000
_symmetry_Int_Tables_number   25
_chemical_formula_structural   ZrAlCu2
_chemical_formula_sum   'Zr4 Al4 Cu8'
_cell_volume   741.62242445
_cell_formula_units_Z   4
loop_
 _symmetry_equiv_pos_site_id
 _symmetry_equiv_pos_as_xyz
  1  'x, y, z'
  2  '-x, -y, z'
  3  '-x, y, z'
  4  'x, -y, z'
loop_
 _atom_site_type_symbol
 _atom_site_label
 _atom_site_symmetry_multiplicity
 _atom_site_fract_x
 _atom_site_fract_y
 _atom_site_fract_z
 _atom_site_occupancy
  Zr  Zr0  1  0.00000000  0.00000000  0.12481000  1.0
  Zr  Zr1  1  0.00000000  0.00000000  0.95860000  1.0
  Zr  Zr2  1  0.50000000  0.50000000  0.04160000  1.0
  Zr  Zr3  1  0.50000000  0.50000000  0.87613000  1.0
  Al  Al4  1  0.00000000  0.50000000  0.12481000  1.0
  Al  Al5  1  0.00000000  0.50000000  0.95733000  1.0
  Al  Al6  1  0.50000000  0.00000000  0.04160000  1.0
  Al  Al7  1  0.50000000  0.00000000  0.87615000  1.0
  Cu  Cu8  2  0.00000000  0.24125500  0.87351000  1.0
  Cu  Cu9  2  0.00000000  0.25000000  0.04160000  1.0
  Cu  Cu10  2  0.50000000  0.25000000  0.12481000  1.0
  Cu  Cu11  2  0.50000000  0.25348500  0.95835500  1.0
