# generated using pymatgen
data_Li8Cu16Si8C
_symmetry_space_group_name_H-M   Pm
_cell_length_a   5.78917000
_cell_length_b   8.18712000
_cell_length_c   26.14030000
_cell_angle_alpha   90.00000000
_cell_angle_beta   90.00000000
_cell_angle_gamma   90.00000000
_symmetry_Int_Tables_number   6
_chemical_formula_structural   Li8Cu16Si8C
_chemical_formula_sum   'Li8 Cu16 Si8 C1'
_cell_volume   1238.96211387
_cell_formula_units_Z   1
loop_
 _symmetry_equiv_pos_site_id
 _symmetry_equiv_pos_as_xyz
  1  'x, y, z'
  2  'x, -y, z'
loop_
 _atom_site_type_symbol
 _atom_site_label
 _atom_site_symmetry_multiplicity
 _atom_site_fract_x
 _atom_site_fract_y
 _atom_site_fract_z
 _atom_site_occupancy
  Li  Li0  2  0.00000000  0.25000000  0.88255000  1.0
  Li  Li1  2  0.00272000  0.25283000  0.03627000  1.0
  Li  Li2  1  0.48538000  0.50000000  0.13830000  1.0
  Li  Li3  1  0.50000000  0.00000000  0.96085000  1.0
  Li  Li4  1  0.50000000  0.50000000  0.96085000  1.0
  Li  Li5  1  0.53632000  0.00000000  0.16414000  1.0
  Cu  Cu6  2  0.24718000  0.24028000  0.11552000  1.0
  Cu  Cu7  2  0.25000000  0.25000000  0.96085000  1.0
  Si  Si8  2  0.49886000  0.25110000  0.03818000  1.0
  Si  Si9  2  0.50000000  0.25000000  0.88255000  1.0
  Cu  Cu10  2  0.75000000  0.25000000  0.96085000  1.0
  Cu  Cu11  2  0.75795000  0.26277000  0.11224000  1.0
  Si  Si12  1  0.00000000  0.00000000  0.96085000  1.0
  Si  Si13  1  0.00000000  0.50000000  0.96085000  1.0
  Si  Si14  1  0.01349000  0.50000000  0.11945000  1.0
  Cu  Cu15  1  0.25000000  0.00000000  0.88255000  1.0
  Cu  Cu16  1  0.25000000  0.50000000  0.88255000  1.0
  Cu  Cu17  1  0.26334000  0.00000000  0.04563000  1.0
  Cu  Cu18  1  0.26347000  0.50000000  0.04372000  1.0
  Cu  Cu19  1  0.74060000  0.00000000  0.03806000  1.0
  Cu  Cu20  1  0.74100000  0.50000000  0.04381000  1.0
  Cu  Cu21  1  0.75000000  0.00000000  0.88255000  1.0
  Cu  Cu22  1  0.75000000  0.50000000  0.88255000  1.0
  Si  Si23  1  0.92580000  0.00000000  0.12120000  1.0
  C  C24  1  0.23219000  0.00000000  0.12931000  1.0
