# generated using pymatgen
data_Li8Ga4Pd4C
_symmetry_space_group_name_H-M   P2
_cell_length_a   6.14873000
_cell_length_b   24.61150000
_cell_length_c   6.14873000
_cell_angle_alpha   90.00000000
_cell_angle_beta   90.00000000
_cell_angle_gamma   90.00000000
_symmetry_Int_Tables_number   3
_chemical_formula_structural   Li8Ga4Pd4C
_chemical_formula_sum   'Li8 Ga4 Pd4 C1'
_cell_volume   930.48404220
_cell_formula_units_Z   1
loop_
 _symmetry_equiv_pos_site_id
 _symmetry_equiv_pos_as_xyz
  1  'x, y, z'
  2  '-x, y, -z'
loop_
 _atom_site_type_symbol
 _atom_site_label
 _atom_site_symmetry_multiplicity
 _atom_site_fract_x
 _atom_site_fract_y
 _atom_site_fract_z
 _atom_site_occupancy
  Li  Li0  2  0.24982000  0.11310000  0.24909000  1.0
  Li  Li1  2  0.25000000  0.96877000  0.75000000  1.0
  Li  Li2  1  0.00000000  0.03217000  0.00000000  1.0
  Li  Li3  1  0.00000000  0.90631000  0.50000000  1.0
  Li  Li4  1  0.50000000  0.03301000  0.50000000  1.0
  Li  Li5  1  0.50000000  0.90631000  0.00000000  1.0
  Ga  Ga6  2  0.25000000  0.96877000  0.25000000  1.0
  Ga  Ga7  2  0.27244000  0.10306000  0.77317000  1.0
  Pd  Pd8  1  0.00000000  0.04404000  0.50000000  1.0
  Pd  Pd9  1  0.00000000  0.90631000  0.00000000  1.0
  Pd  Pd10  1  0.50000000  0.02444000  0.00000000  1.0
  Pd  Pd11  1  0.50000000  0.90631000  0.50000000  1.0
  C  C12  1  0.50000000  0.11449000  0.00000000  1.0
