data_image0
_chemical_formula_structural       Y4Sc4Ga4Pd4
_chemical_formula_sum              "Y4 Sc4 Ga4 Pd4"
_cell_length_a       7.06732
_cell_length_b       6.83834
_cell_length_c       25.1249
_cell_angle_alpha    90
_cell_angle_beta     90
_cell_angle_gamma    90

_space_group_name_H-M_alt    "P 1"
_space_group_IT_number       1

loop_
  _space_group_symop_operation_xyz
  'x, y, z'

loop_
  _atom_site_type_symbol
  _atom_site_label
  _atom_site_symmetry_multiplicity
  _atom_site_fract_x
  _atom_site_fract_y
  _atom_site_fract_z
  _atom_site_occupancy
  Y   Y1        1.0  0.25000  0.73219  0.04161  1.0000
  Y   Y2        1.0  0.25000  0.22100  0.89801  1.0000
  Y   Y3        1.0  0.75000  0.73219  0.04162  1.0000
  Y   Y4        1.0  0.75000  0.22100  0.89801  1.0000
  Sc  Sc1       1.0  0.25001  0.22495  0.02908  1.0000
  Sc  Sc2       1.0  0.25000  0.72100  0.89801  1.0000
  Sc  Sc3       1.0  0.75000  0.22495  0.02908  1.0000
  Sc  Sc4       1.0  0.75000  0.72100  0.89801  1.0000
  Ga  Ga1       1.0  0.00001  0.02739  0.10323  1.0000
  Ga  Ga2       1.0  0.00000  0.48067  0.96600  1.0000
  Ga  Ga3       1.0  0.49999  0.02739  0.10323  1.0000
  Ga  Ga4       1.0  0.50000  0.48067  0.96600  1.0000
  Pd  Pd1       1.0  0.00000  0.42819  0.08734  1.0000
  Pd  Pd2       1.0  0.00000  0.98067  0.96600  1.0000
  Pd  Pd3       1.0  0.50000  0.42819  0.08734  1.0000
  Pd  Pd4       1.0  0.50000  0.98067  0.96600  1.0000
