# generated using pymatgen
data_YScGaPd
_symmetry_space_group_name_H-M   'P 1'
_cell_length_a   6.83834000
_cell_length_b   3.53366000
_cell_length_c   25.12490000
_cell_angle_alpha   90.00000000
_cell_angle_beta   90.00000000
_cell_angle_gamma   90.00000000
_symmetry_Int_Tables_number   1
_chemical_formula_structural   YScGaPd
_chemical_formula_sum   'Y2 Sc2 Ga2 Pd2'
_cell_volume   607.12734274
_cell_formula_units_Z   2
loop_
 _symmetry_equiv_pos_site_id
 _symmetry_equiv_pos_as_xyz
  1  'x, y, z'
loop_
 _atom_site_type_symbol
 _atom_site_label
 _atom_site_symmetry_multiplicity
 _atom_site_fract_x
 _atom_site_fract_y
 _atom_site_fract_z
 _atom_site_occupancy
  Y  Y0  1  0.73219000  0.50000000  0.95838500  1.0
  Y  Y1  1  0.22100000  0.50000000  0.10199000  1.0
  Sc  Sc2  1  0.22495000  0.50000000  0.97092000  1.0
  Sc  Sc3  1  0.72100000  0.50000000  0.10199000  1.0
  Ga  Ga4  1  0.02739000  0.00000000  0.89677000  1.0
  Ga  Ga5  1  0.48067000  0.00000000  0.03400000  1.0
  Pd  Pd6  1  0.42819000  0.00000000  0.91266000  1.0
  Pd  Pd7  1  0.98067000  0.00000000  0.03400000  1.0
