# generated using pymatgen
data_Nb4Rh12CO
_symmetry_space_group_name_H-M   Pm
_cell_length_a   5.52830000
_cell_length_b   7.81819000
_cell_length_c   24.14620000
_cell_angle_alpha   90.00000000
_cell_angle_beta   90.00000000
_cell_angle_gamma   90.00000000
_symmetry_Int_Tables_number   6
_chemical_formula_structural   Nb4Rh12CO
_chemical_formula_sum   'Nb4 Rh12 C1 O1'
_cell_volume   1043.63014868
_cell_formula_units_Z   1
loop_
 _symmetry_equiv_pos_site_id
 _symmetry_equiv_pos_as_xyz
  1  'x, y, z'
  2  'x, -y, z'
loop_
 _atom_site_type_symbol
 _atom_site_label
 _atom_site_symmetry_multiplicity
 _atom_site_fract_x
 _atom_site_fract_y
 _atom_site_fract_z
 _atom_site_occupancy
  Nb  Nb0  2  0.00000000  0.25000000  0.08586000  1.0
  Nb  Nb1  2  0.50055000  0.24855000  0.96930000  1.0
  Rh  Rh2  2  0.00167000  0.24941000  0.97892000  1.0
  Rh  Rh3  2  0.50000000  0.25000000  0.08586000  1.0
  Rh  Rh4  1  0.25000000  0.00000000  0.02862000  1.0
  Rh  Rh5  1  0.25000000  0.50000000  0.02862000  1.0
  Rh  Rh6  1  0.25484000  0.00000000  0.91885000  1.0
  Rh  Rh7  1  0.26598000  0.50000000  0.91816000  1.0
  Rh  Rh8  1  0.74381000  0.00000000  0.91844000  1.0
  Rh  Rh9  1  0.75000000  0.00000000  0.02862000  1.0
  Rh  Rh10  1  0.75000000  0.50000000  0.02862000  1.0
  Rh  Rh11  1  0.76231000  0.50000000  0.91631000  1.0
  C  C12  1  0.74207000  0.50000000  0.83912000  1.0
  O  O13  1  0.73385000  0.50000000  0.79115000  1.0
