# generated using pymatgen
data_Y8In8Pd8Au8CO
_symmetry_space_group_name_H-M   'P 1'
_cell_length_a   9.80272000
_cell_length_b   6.93157000
_cell_length_c   27.35200000
_cell_angle_alpha   90.00000000
_cell_angle_beta   90.00000000
_cell_angle_gamma   90.00000000
_symmetry_Int_Tables_number   1
_chemical_formula_structural   Y8In8Pd8Au8CO
_chemical_formula_sum   'Y8 In8 Pd8 Au8 C1 O1'
_cell_volume   1858.52025694
_cell_formula_units_Z   1
loop_
 _symmetry_equiv_pos_site_id
 _symmetry_equiv_pos_as_xyz
  1  'x, y, z'
loop_
 _atom_site_type_symbol
 _atom_site_label
 _atom_site_symmetry_multiplicity
 _atom_site_fract_x
 _atom_site_fract_y
 _atom_site_fract_z
 _atom_site_occupancy
  Y  Y0  1  0.00000000  0.75000000  0.04480000  1.0
  Y  Y1  1  0.50000000  0.75000000  0.04480000  1.0
  Y  Y2  1  0.25000000  0.25000000  0.13440000  1.0
  Y  Y3  1  0.75000000  0.25000000  0.13440000  1.0
  Y  Y4  1  0.50000000  0.74059000  0.86649000  1.0
  Y  Y5  1  0.00000000  0.74260000  0.86780000  1.0
  Y  Y6  1  0.74670000  0.25868000  0.95170000  1.0
  Y  Y7  1  0.25330000  0.25868000  0.95170000  1.0
  In  In8  1  0.00000000  0.25000000  0.04480000  1.0
  In  In9  1  0.50000000  0.25000000  0.04480000  1.0
  In  In10  1  0.25000000  0.75000000  0.13440000  1.0
  In  In11  1  0.75000000  0.75000000  0.13440000  1.0
  In  In12  1  0.50000000  0.23706000  0.85991000  1.0
  In  In13  1  0.00000000  0.23582000  0.85914000  1.0
  In  In14  1  0.75296000  0.75227000  0.95430000  1.0
  In  In15  1  0.24704000  0.75227000  0.95430000  1.0
  Pd  Pd16  1  0.25000000  0.00000000  0.04480000  1.0
  Pd  Pd17  1  0.75000000  0.00000000  0.04480000  1.0
  Pd  Pd18  1  0.50000000  0.50000000  0.13440000  1.0
  Pd  Pd19  1  0.00000000  0.50000000  0.13440000  1.0
  Pd  Pd20  1  0.74765000  0.00257000  0.87015000  1.0
  Pd  Pd21  1  0.25235000  0.00257000  0.87015000  1.0
  Pd  Pd22  1  0.00000000  0.49523000  0.95602000  1.0
  Pd  Pd23  1  0.50000000  0.51141000  0.95480000  1.0
  Au  Au24  1  0.00000000  0.00000000  0.13440000  1.0
  Au  Au25  1  0.50000000  0.00000000  0.13440000  1.0
  Au  Au26  1  0.75000000  0.50000000  0.04480000  1.0
  Au  Au27  1  0.25000000  0.50000000  0.04480000  1.0
  Au  Au28  1  0.50000000  0.99746000  0.95452000  1.0
  Au  Au29  1  0.00000000  0.01092000  0.95525000  1.0
  Au  Au30  1  0.25000000  0.48438000  0.85690000  1.0
  Au  Au31  1  0.75000000  0.48438000  0.85690000  1.0
  C  C32  1  0.00000000  0.74784000  0.77528000  1.0
  O  O33  1  0.00000000  0.75198000  0.73347000  1.0
