# generated using pymatgen
data_Mn4Co8Si4CO
_symmetry_space_group_name_H-M   P4mm
_cell_length_a   5.64266000
_cell_length_b   5.64266000
_cell_length_c   24.23200000
_cell_angle_alpha   90.00000000
_cell_angle_beta   90.00000000
_cell_angle_gamma   90.00000000
_symmetry_Int_Tables_number   99
_chemical_formula_structural   Mn4Co8Si4CO
_chemical_formula_sum   'Mn4 Co8 Si4 C1 O1'
_cell_volume   771.53747497
_cell_formula_units_Z   1
loop_
 _symmetry_equiv_pos_site_id
 _symmetry_equiv_pos_as_xyz
  1  'x, y, z'
  2  '-y, x, z'
  3  '-x, -y, z'
  4  'y, -x, z'
  5  '-x, y, z'
  6  'y, x, z'
  7  'x, -y, z'
  8  '-y, -x, z'
loop_
 _atom_site_type_symbol
 _atom_site_label
 _atom_site_symmetry_multiplicity
 _atom_site_fract_x
 _atom_site_fract_y
 _atom_site_fract_z
 _atom_site_occupancy
  Mn  Mn0  2  0.00000000  0.50000000  0.08732000  1.0
  Mn  Mn1  1  0.00000000  0.00000000  0.97089000  1.0
  Mn  Mn2  1  0.50000000  0.50000000  0.97089000  1.0
  Co  Co3  4  0.25000000  0.25000000  0.02911000  1.0
  Co  Co4  4  0.25000000  0.75000000  0.91268000  1.0
  Si  Si5  2  0.00000000  0.50000000  0.97089000  1.0
  Si  Si6  1  0.00000000  0.00000000  0.08732000  1.0
  Si  Si7  1  0.50000000  0.50000000  0.08732000  1.0
  C  C8  1  0.00000000  0.00000000  0.16573000  1.0
  O  O9  1  0.00000000  0.00000000  0.21319000  1.0
