# generated using pymatgen
data_Li8Al8In8Pd8CO
_symmetry_space_group_name_H-M   'P 1'
_cell_length_a   9.04374000
_cell_length_b   6.39489000
_cell_length_c   26.78280000
_cell_angle_alpha   90.00000000
_cell_angle_beta   90.00000000
_cell_angle_gamma   90.00000000
_symmetry_Int_Tables_number   1
_chemical_formula_structural   Li8Al8In8Pd8CO
_chemical_formula_sum   'Li8 Al8 In8 Pd8 C1 O1'
_cell_volume   1548.94902267
_cell_formula_units_Z   1
loop_
 _symmetry_equiv_pos_site_id
 _symmetry_equiv_pos_as_xyz
  1  'x, y, z'
loop_
 _atom_site_type_symbol
 _atom_site_label
 _atom_site_symmetry_multiplicity
 _atom_site_fract_x
 _atom_site_fract_y
 _atom_site_fract_z
 _atom_site_occupancy
  Li  Li0  1  0.00000000  0.75000000  0.04221000  1.0
  Li  Li1  1  0.50000000  0.75000000  0.04221000  1.0
  Li  Li2  1  0.25000000  0.25000000  0.12663000  1.0
  Li  Li3  1  0.75000000  0.25000000  0.12663000  1.0
  Li  Li4  1  0.50000000  0.67439000  0.82262000  1.0
  Li  Li5  1  0.00000000  0.70392000  0.84600000  1.0
  Li  Li6  1  0.74951000  0.21884000  0.95331000  1.0
  Li  Li7  1  0.25049000  0.21884000  0.95331000  1.0
  Al  Al8  1  0.00000000  0.00000000  0.12663000  1.0
  Al  Al9  1  0.50000000  0.00000000  0.12663000  1.0
  Al  Al10  1  0.75000000  0.50000000  0.04221000  1.0
  Al  Al11  1  0.25000000  0.50000000  0.04221000  1.0
  Al  Al12  1  0.50000000  0.97281000  0.95043000  1.0
  Al  Al13  1  0.00000000  0.96948000  0.94347000  1.0
  Al  Al14  1  0.26264000  0.48904000  0.87527000  1.0
  Al  Al15  1  0.73736000  0.48904000  0.87527000  1.0
  In  In16  1  0.25000000  0.00000000  0.04221000  1.0
  In  In17  1  0.75000000  0.00000000  0.04221000  1.0
  In  In18  1  0.50000000  0.50000000  0.12663000  1.0
  In  In19  1  0.00000000  0.50000000  0.12663000  1.0
  In  In20  1  0.73564000  0.95719000  0.86070000  1.0
  In  In21  1  0.26436000  0.95719000  0.86070000  1.0
  In  In22  1  0.00000000  0.48644000  0.95201000  1.0
  In  In23  1  0.50000000  0.50393000  0.95654000  1.0
  Pd  Pd24  1  0.00000000  0.25000000  0.04221000  1.0
  Pd  Pd25  1  0.50000000  0.25000000  0.04221000  1.0
  Pd  Pd26  1  0.25000000  0.75000000  0.12663000  1.0
  Pd  Pd27  1  0.75000000  0.75000000  0.12663000  1.0
  Pd  Pd28  1  0.50000000  0.24663000  0.87642000  1.0
  Pd  Pd29  1  0.00000000  0.24182000  0.86544000  1.0
  Pd  Pd30  1  0.75430000  0.74770000  0.96056000  1.0
  Pd  Pd31  1  0.24570000  0.74770000  0.96056000  1.0
  C  C32  1  0.00000000  0.27268000  0.79207000  1.0
  O  O33  1  0.00000000  0.28605000  0.74906000  1.0
