# generated using pymatgen
data_Y8Cu8Sn8Pd8CO
_symmetry_space_group_name_H-M   'P 1'
_cell_length_a   9.56710000
_cell_length_b   6.76496000
_cell_length_c   27.17530000
_cell_angle_alpha   90.00000000
_cell_angle_beta   90.00000000
_cell_angle_gamma   90.00000000
_symmetry_Int_Tables_number   1
_chemical_formula_structural   Y8Cu8Sn8Pd8CO
_chemical_formula_sum   'Y8 Cu8 Sn8 Pd8 C1 O1'
_cell_volume   1758.81391789
_cell_formula_units_Z   1
loop_
 _symmetry_equiv_pos_site_id
 _symmetry_equiv_pos_as_xyz
  1  'x, y, z'
loop_
 _atom_site_type_symbol
 _atom_site_label
 _atom_site_symmetry_multiplicity
 _atom_site_fract_x
 _atom_site_fract_y
 _atom_site_fract_z
 _atom_site_occupancy
  Y  Y0  1  0.00000000  0.25000000  0.04401000  1.0
  Y  Y1  1  0.50000000  0.25000000  0.04401000  1.0
  Y  Y2  1  0.25000000  0.75000000  0.13202000  1.0
  Y  Y3  1  0.75000000  0.75000000  0.13202000  1.0
  Y  Y4  1  0.50000000  0.27298000  0.86104000  1.0
  Y  Y5  1  0.00000000  0.26848000  0.86468000  1.0
  Y  Y6  1  0.74396000  0.75322000  0.95616000  1.0
  Y  Y7  1  0.25604000  0.75322000  0.95616000  1.0
  Cu  Cu8  1  0.00000000  0.00000000  0.13202000  1.0
  Cu  Cu9  1  0.50000000  1.00000000  0.13202000  1.0
  Cu  Cu10  1  0.75000000  0.50000000  0.04401000  1.0
  Cu  Cu11  1  0.25000000  0.50000000  0.04401000  1.0
  Cu  Cu12  1  0.50000000  0.03064000  0.94804000  1.0
  Cu  Cu13  1  0.00000000  0.99452000  0.95110000  1.0
  Cu  Cu14  1  0.25005000  0.55099000  0.86152000  1.0
  Cu  Cu15  1  0.74995000  0.55099000  0.86152000  1.0
  Sn  Sn16  1  0.00000000  0.75000000  0.04401000  1.0
  Sn  Sn17  1  0.50000000  0.75000000  0.04401000  1.0
  Sn  Sn18  1  0.25000000  0.25000000  0.13202000  1.0
  Sn  Sn19  1  0.75000000  0.25000000  0.13202000  1.0
  Sn  Sn20  1  0.50000000  0.76123000  0.86557000  1.0
  Sn  Sn21  1  0.00000000  0.75928000  0.86453000  1.0
  Sn  Sn22  1  0.75440000  0.25475000  0.95465000  1.0
  Sn  Sn23  1  0.24560000  0.25475000  0.95465000  1.0
  Pd  Pd24  1  0.25000000  0.00000000  0.04401000  1.0
  Pd  Pd25  1  0.75000000  0.00000000  0.04401000  1.0
  Pd  Pd26  1  0.50000000  0.50000000  0.13202000  1.0
  Pd  Pd27  1  0.00000000  0.50000000  0.13202000  1.0
  Pd  Pd28  1  0.74694000  0.00572000  0.87149000  1.0
  Pd  Pd29  1  0.25306000  0.00572000  0.87149000  1.0
  Pd  Pd30  1  0.00000000  0.50968000  0.95592000  1.0
  Pd  Pd31  1  0.50000000  0.48016000  0.95389000  1.0
  C  C32  1  0.00000000  0.27415000  0.77158000  1.0
  O  O33  1  0.00000000  0.26912000  0.72948000  1.0
