# generated using pymatgen
data_Y8Cu8Sn8Pd8CO
_symmetry_space_group_name_H-M   Pm
_cell_length_a   6.76496000
_cell_length_b   9.56710000
_cell_length_c   27.17530000
_cell_angle_alpha   90.00000000
_cell_angle_beta   90.00000000
_cell_angle_gamma   90.00000000
_symmetry_Int_Tables_number   6
_chemical_formula_structural   Y8Cu8Sn8Pd8CO
_chemical_formula_sum   'Y8 Cu8 Sn8 Pd8 C1 O1'
_cell_volume   1758.81391789
_cell_formula_units_Z   1
loop_
 _symmetry_equiv_pos_site_id
 _symmetry_equiv_pos_as_xyz
  1  'x, y, z'
  2  'x, -y, z'
loop_
 _atom_site_type_symbol
 _atom_site_label
 _atom_site_symmetry_multiplicity
 _atom_site_fract_x
 _atom_site_fract_y
 _atom_site_fract_z
 _atom_site_occupancy
  Y  Y0  2  0.75000000  0.25000000  0.86798000  1.0
  Y  Y1  2  0.75322000  0.25604000  0.04384000  1.0
  Y  Y2  1  0.25000000  0.00000000  0.95599000  1.0
  Y  Y3  1  0.25000000  0.50000000  0.95599000  1.0
  Y  Y4  1  0.26848000  0.00000000  0.13532000  1.0
  Y  Y5  1  0.27298000  0.50000000  0.13896000  1.0
  Cu  Cu6  2  0.50000000  0.25000000  0.95599000  1.0
  Cu  Cu7  2  0.55099000  0.25005000  0.13848000  1.0
  Cu  Cu8  1  -0.00000000  0.50000000  0.86798000  1.0
  Cu  Cu9  1  0.00000000  0.00000000  0.86798000  1.0
  Cu  Cu10  1  0.03064000  0.50000000  0.05196000  1.0
  Cu  Cu11  1  0.99452000  0.00000000  0.04890000  1.0
  Sn  Sn12  2  0.25000000  0.25000000  0.86798000  1.0
  Sn  Sn13  2  0.25475000  0.24560000  0.04535000  1.0
  Sn  Sn14  1  0.75000000  0.00000000  0.95599000  1.0
  Sn  Sn15  1  0.75000000  0.50000000  0.95599000  1.0
  Sn  Sn16  1  0.75928000  0.00000000  0.13547000  1.0
  Sn  Sn17  1  0.76123000  0.50000000  0.13443000  1.0
  Pd  Pd18  2  0.00000000  0.25000000  0.95599000  1.0
  Pd  Pd19  2  0.00572000  0.25306000  0.12851000  1.0
  Pd  Pd20  1  0.48016000  0.50000000  0.04611000  1.0
  Pd  Pd21  1  0.50000000  0.00000000  0.86798000  1.0
  Pd  Pd22  1  0.50000000  0.50000000  0.86798000  1.0
  Pd  Pd23  1  0.50968000  0.00000000  0.04408000  1.0
  C  C24  1  0.27415000  0.00000000  0.22842000  1.0
  O  O25  1  0.26912000  0.00000000  0.27052000  1.0
