# generated using pymatgen
data_Y4In4Cu4Sn4C
_symmetry_space_group_name_H-M   'P 1'
_cell_length_a   8.82850000
_cell_length_b   6.36255000
_cell_length_c   24.76930000
_cell_angle_alpha   90.00000000
_cell_angle_beta   90.00000000
_cell_angle_gamma   90.00000000
_symmetry_Int_Tables_number   1
_chemical_formula_structural   Y4In4Cu4Sn4C
_chemical_formula_sum   'Y4 In4 Cu4 Sn4 C1'
_cell_volume   1391.33548892
_cell_formula_units_Z   1
loop_
 _symmetry_equiv_pos_site_id
 _symmetry_equiv_pos_as_xyz
  1  'x, y, z'
loop_
 _atom_site_type_symbol
 _atom_site_label
 _atom_site_symmetry_multiplicity
 _atom_site_fract_x
 _atom_site_fract_y
 _atom_site_fract_z
 _atom_site_occupancy
  Y  Y0  1  0.75000000  0.25830000  0.96791000  1.0
  Y  Y1  1  0.79025000  0.76927000  0.09882000  1.0
  Y  Y2  1  0.25000000  0.25830000  0.96791000  1.0
  Y  Y3  1  0.20975000  0.76927000  0.09882000  1.0
  In  In4  1  0.75000000  0.75830000  0.96791000  1.0
  In  In5  1  0.81205000  0.27731000  0.12331000  1.0
  In  In6  1  0.25000000  0.75830000  0.96791000  1.0
  In  In7  1  0.18795000  0.27731000  0.12331000  1.0
  Cu  Cu8  1  0.00000000  0.00000000  0.90373000  1.0
  Cu  Cu9  1  0.00000000  0.50901000  0.02225000  1.0
  Cu  Cu10  1  0.50000000  0.00000000  0.90373000  1.0
  Cu  Cu11  1  0.50000000  0.51773000  0.01862000  1.0
  Sn  Sn12  1  0.00000000  0.50000000  0.90373000  1.0
  Sn  Sn13  1  0.00000000  0.04848000  0.02918000  1.0
  Sn  Sn14  1  0.50000000  0.50000000  0.90373000  1.0
  Sn  Sn15  1  0.50000000  0.07304000  0.06048000  1.0
  C  C16  1  0.00000000  0.97037000  0.11997000  1.0
