data_image0
_chemical_formula_structural       Sc8Ga8Ni16C
_chemical_formula_sum              "Sc8 Ga8 Ni16 C1"
_cell_length_a       6.06833
_cell_length_b       8.58191
_cell_length_c       26.4364
_cell_angle_alpha    90
_cell_angle_beta     90
_cell_angle_gamma    90

_space_group_name_H-M_alt    "P 1"
_space_group_IT_number       1

loop_
  _space_group_symop_operation_xyz
  'x, y, z'

loop_
  _atom_site_type_symbol
  _atom_site_label
  _atom_site_symmetry_multiplicity
  _atom_site_fract_x
  _atom_site_fract_y
  _atom_site_fract_z
  _atom_site_occupancy
  Sc  Sc1       1.0  0.00000  0.00000  0.87827  1.0000
  Sc  Sc2       1.0  0.50000  0.25000  0.95942  1.0000
  Sc  Sc3       1.0  0.50000  0.75000  0.95942  1.0000
  Sc  Sc4       1.0  0.00000  0.50000  0.87827  1.0000
  Sc  Sc5       1.0  0.00418  0.49606  0.03904  1.0000
  Sc  Sc6       1.0  0.50166  0.75000  0.12620  1.0000
  Sc  Sc7       1.0  0.56969  0.24999  0.15953  1.0000
  Sc  Sc8       1.0  0.00417  0.00395  0.03904  1.0000
  Ga  Ga1       1.0  0.00000  0.75000  0.95942  1.0000
  Ga  Ga2       1.0  0.50000  0.00000  0.87827  1.0000
  Ga  Ga3       1.0  0.00000  0.25000  0.95942  1.0000
  Ga  Ga4       1.0  0.50000  0.50000  0.87827  1.0000
  Ga  Ga5       1.0  0.95990  0.25000  0.11873  1.0000
  Ga  Ga6       1.0  0.50367  0.50526  0.04205  1.0000
  Ga  Ga7       1.0  0.00783  0.74999  0.12055  1.0000
  Ga  Ga8       1.0  0.50367  0.99475  0.04205  1.0000
  Ni  Ni1       1.0  0.25000  0.00000  0.95942  1.0000
  Ni  Ni2       1.0  0.75000  0.50000  0.95942  1.0000
  Ni  Ni3       1.0  0.75000  0.00000  0.95942  1.0000
  Ni  Ni4       1.0  0.25000  0.50000  0.95942  1.0000
  Ni  Ni5       1.0  0.75000  0.75000  0.87827  1.0000
  Ni  Ni6       1.0  0.25000  0.25000  0.87827  1.0000
  Ni  Ni7       1.0  0.25000  0.75000  0.87827  1.0000
  Ni  Ni8       1.0  0.75000  0.25000  0.87827  1.0000
  Ni  Ni9       1.0  0.24526  0.47947  0.11814  1.0000
  Ni  Ni10      1.0  0.76304  0.99594  0.11691  1.0000
  Ni  Ni11      1.0  0.76303  0.50404  0.11691  1.0000
  Ni  Ni12      1.0  0.24523  0.02052  0.11814  1.0000
  Ni  Ni13      1.0  0.72359  0.25000  0.04374  1.0000
  Ni  Ni14      1.0  0.26267  0.75001  0.04405  1.0000
  Ni  Ni15      1.0  0.28317  0.25000  0.04974  1.0000
  Ni  Ni16      1.0  0.75011  0.75000  0.04237  1.0000
  C   C1        1.0  0.27986  0.25000  0.12328  1.0000
