# generated using pymatgen
data_LiAlPdPt
_symmetry_space_group_name_H-M   Pmm2
_cell_length_a   4.28592976
_cell_length_b   4.28592976
_cell_length_c   24.54590000
_cell_angle_alpha   90.00000000
_cell_angle_beta   90.00000000
_cell_angle_gamma   90.00000000
_symmetry_Int_Tables_number   25
_chemical_formula_structural   LiAlPdPt
_chemical_formula_sum   'Li2 Al2 Pd2 Pt2'
_cell_volume   450.88839763
_cell_formula_units_Z   2
loop_
 _symmetry_equiv_pos_site_id
 _symmetry_equiv_pos_as_xyz
  1  'x, y, z'
  2  '-x, -y, z'
  3  '-x, y, z'
  4  'x, -y, z'
loop_
 _atom_site_type_symbol
 _atom_site_label
 _atom_site_symmetry_multiplicity
 _atom_site_fract_x
 _atom_site_fract_y
 _atom_site_fract_z
 _atom_site_occupancy
  Li  Li0  1  0.00000000  0.00000000  0.03087000  1.0
  Li  Li1  1  0.50000000  0.50000000  0.90740000  1.0
  Al  Al2  1  0.00000000  0.00000000  0.90740000  1.0
  Al  Al3  1  0.50000000  0.50000000  0.03087000  1.0
  Pd  Pd4  1  0.00000000  0.50000000  0.96913000  1.0
  Pd  Pd5  1  0.50000000  0.00000000  0.09260000  1.0
  Pt  Pt6  1  0.00000000  0.50000000  0.09260000  1.0
  Pt  Pt7  1  0.50000000  0.00000000  0.96913000  1.0
