# generated using pymatgen
data_Pd12Pb4C
_symmetry_space_group_name_H-M   'P 1'
_cell_length_a   5.88450000
_cell_length_b   8.32195000
_cell_length_c   24.41340000
_cell_angle_alpha   90.00000000
_cell_angle_beta   90.00000000
_cell_angle_gamma   90.00000000
_symmetry_Int_Tables_number   1
_chemical_formula_structural   Pd12Pb4C
_chemical_formula_sum   'Pd12 Pb4 C1'
_cell_volume   1195.53676541
_cell_formula_units_Z   1
loop_
 _symmetry_equiv_pos_site_id
 _symmetry_equiv_pos_as_xyz
  1  'x, y, z'
loop_
 _atom_site_type_symbol
 _atom_site_label
 _atom_site_symmetry_multiplicity
 _atom_site_fract_x
 _atom_site_fract_y
 _atom_site_fract_z
 _atom_site_occupancy
  Pd  Pd0  1  0.50000000  0.00000000  0.09039000  1.0
  Pd  Pd1  1  0.75000000  0.25000000  0.03013000  1.0
  Pd  Pd2  1  0.25000000  0.25000000  0.03013000  1.0
  Pd  Pd3  1  0.00000000  0.00000000  0.97809000  1.0
  Pd  Pd4  1  0.23424000  0.18908000  0.90489000  1.0
  Pd  Pd5  1  0.76576000  0.18908000  0.90489000  1.0
  Pd  Pd6  1  0.50000000  0.50000000  0.09039000  1.0
  Pd  Pd7  1  0.75000000  0.75000000  0.03013000  1.0
  Pd  Pd8  1  0.25000000  0.75000000  0.03013000  1.0
  Pd  Pd9  1  0.00000000  0.50000000  0.96397000  1.0
  Pd  Pd10  1  0.23424000  0.81092000  0.90489000  1.0
  Pd  Pd11  1  0.76576000  0.81092000  0.90489000  1.0
  Pb  Pb12  1  0.00000000  0.00000000  0.09039000  1.0
  Pb  Pb13  1  0.50000000  0.00000000  0.97671000  1.0
  Pb  Pb14  1  0.00000000  0.50000000  0.09039000  1.0
  Pb  Pb15  1  0.50000000  0.50000000  0.95818000  1.0
  C  C16  1  0.00000000  0.00000000  0.89485000  1.0
