# generated using pymatgen
data_Al16Au16CO
_symmetry_space_group_name_H-M   'P 1'
_cell_length_a   6.49845000
_cell_length_b   9.19019000
_cell_length_c   26.89260000
_cell_angle_alpha   90.00000000
_cell_angle_beta   90.00000000
_cell_angle_gamma   90.00000000
_symmetry_Int_Tables_number   1
_chemical_formula_structural   Al16Au16CO
_chemical_formula_sum   'Al16 Au16 C1 O1'
_cell_volume   1606.07959380
_cell_formula_units_Z   1
loop_
 _symmetry_equiv_pos_site_id
 _symmetry_equiv_pos_as_xyz
  1  'x, y, z'
loop_
 _atom_site_type_symbol
 _atom_site_label
 _atom_site_symmetry_multiplicity
 _atom_site_fract_x
 _atom_site_fract_y
 _atom_site_fract_z
 _atom_site_occupancy
  Al  Al0  1  0.00000000  0.75000000  0.87185000  1.0
  Al  Al1  1  0.00000000  0.00000000  0.95728000  1.0
  Al  Al2  1  0.00000000  0.75113000  0.04579000  1.0
  Al  Al3  1  0.00000000  0.00000000  0.12686000  1.0
  Al  Al4  1  0.00000000  0.25000000  0.87185000  1.0
  Al  Al5  1  0.00000000  0.50000000  0.95728000  1.0
  Al  Al6  1  0.00000000  0.24887000  0.04579000  1.0
  Al  Al7  1  0.00000000  0.50000000  0.13137000  1.0
  Al  Al8  1  0.50000000  0.75000000  0.87185000  1.0
  Al  Al9  1  0.50000000  0.00000000  0.95728000  1.0
  Al  Al10  1  0.50000000  0.74693000  0.04586000  1.0
  Al  Al11  1  0.50000000  0.00000000  0.13586000  1.0
  Al  Al12  1  0.50000000  0.25000000  0.87185000  1.0
  Al  Al13  1  0.50000000  0.50000000  0.95728000  1.0
  Al  Al14  1  0.50000000  0.25307000  0.04586000  1.0
  Al  Al15  1  0.50000000  0.50000000  0.12952000  1.0
  Au  Au16  1  0.25000000  0.00000000  0.87185000  1.0
  Au  Au17  1  0.25000000  0.75000000  0.95728000  1.0
  Au  Au18  1  0.25762000  0.00000000  0.04415000  1.0
  Au  Au19  1  0.25195000  0.74603000  0.13002000  1.0
  Au  Au20  1  0.25000000  0.50000000  0.87185000  1.0
  Au  Au21  1  0.25000000  0.25000000  0.95728000  1.0
  Au  Au22  1  0.24598000  0.50000000  0.04084000  1.0
  Au  Au23  1  0.25195000  0.25397000  0.13002000  1.0
  Au  Au24  1  0.75000000  0.00000000  0.87185000  1.0
  Au  Au25  1  0.75000000  0.75000000  0.95728000  1.0
  Au  Au26  1  0.74238000  0.00000000  0.04415000  1.0
  Au  Au27  1  0.74805000  0.74603000  0.13002000  1.0
  Au  Au28  1  0.75000000  0.50000000  0.87185000  1.0
  Au  Au29  1  0.75000000  0.25000000  0.95728000  1.0
  Au  Au30  1  0.75402000  0.50000000  0.04084000  1.0
  Au  Au31  1  0.74805000  0.25397000  0.13002000  1.0
  C  C32  1  0.00000000  0.00000000  0.20186000  1.0
  O  O33  1  0.00000000  0.00000000  0.24457000  1.0
