# generated using pymatgen
data_Al16Au16CO
_symmetry_space_group_name_H-M   Pmm2
_cell_length_a   6.49845000
_cell_length_b   9.19019000
_cell_length_c   26.89260000
_cell_angle_alpha   90.00000000
_cell_angle_beta   90.00000000
_cell_angle_gamma   90.00000000
_symmetry_Int_Tables_number   25
_chemical_formula_structural   Al16Au16CO
_chemical_formula_sum   'Al16 Au16 C1 O1'
_cell_volume   1606.07959380
_cell_formula_units_Z   1
loop_
 _symmetry_equiv_pos_site_id
 _symmetry_equiv_pos_as_xyz
  1  'x, y, z'
  2  '-x, -y, z'
  3  '-x, y, z'
  4  'x, -y, z'
loop_
 _atom_site_type_symbol
 _atom_site_label
 _atom_site_symmetry_multiplicity
 _atom_site_fract_x
 _atom_site_fract_y
 _atom_site_fract_z
 _atom_site_occupancy
  Al  Al0  2  0.00000000  0.24887000  0.04579000  1.0
  Al  Al1  2  0.00000000  0.25000000  0.87185000  1.0
  Al  Al2  2  0.50000000  0.25000000  0.87185000  1.0
  Al  Al3  2  0.50000000  0.25307000  0.04586000  1.0
  Al  Al4  1  0.00000000  0.00000000  0.12686000  1.0
  Al  Al5  1  0.00000000  0.00000000  0.95728000  1.0
  Al  Al6  1  0.00000000  0.50000000  0.13137000  1.0
  Al  Al7  1  0.00000000  0.50000000  0.95728000  1.0
  Al  Al8  1  0.50000000  0.00000000  0.13586000  1.0
  Al  Al9  1  0.50000000  0.00000000  0.95728000  1.0
  Al  Al10  1  0.50000000  0.50000000  0.12952000  1.0
  Al  Al11  1  0.50000000  0.50000000  0.95728000  1.0
  Au  Au12  4  0.25000000  0.25000000  0.95728000  1.0
  Au  Au13  4  0.25195000  0.25397000  0.13002000  1.0
  Au  Au14  2  0.24598000  0.50000000  0.04084000  1.0
  Au  Au15  2  0.25000000  0.00000000  0.87185000  1.0
  Au  Au16  2  0.25000000  0.50000000  0.87185000  1.0
  Au  Au17  2  0.25762000  0.00000000  0.04415000  1.0
  C  C18  1  0.00000000  0.00000000  0.20186000  1.0
  O  O19  1  0.00000000  0.00000000  0.24457000  1.0
