# generated using pymatgen
data_Y8In8Pd8Au8C
_symmetry_space_group_name_H-M   Pm
_cell_length_a   6.93157000
_cell_length_b   9.80272000
_cell_length_c   27.35200000
_cell_angle_alpha   90.00000000
_cell_angle_beta   90.00000000
_cell_angle_gamma   90.00000000
_symmetry_Int_Tables_number   6
_chemical_formula_structural   Y8In8Pd8Au8C
_chemical_formula_sum   'Y8 In8 Pd8 Au8 C1'
_cell_volume   1858.52025694
_cell_formula_units_Z   1
loop_
 _symmetry_equiv_pos_site_id
 _symmetry_equiv_pos_as_xyz
  1  'x, y, z'
  2  'x, -y, z'
loop_
 _atom_site_type_symbol
 _atom_site_label
 _atom_site_symmetry_multiplicity
 _atom_site_fract_x
 _atom_site_fract_y
 _atom_site_fract_z
 _atom_site_occupancy
  Y  Y0  2  0.72162000  0.26906000  0.13052000  1.0
  Y  Y1  2  0.75000000  0.25000000  0.95520000  1.0
  Y  Y2  1  0.25000000  0.00000000  0.86560000  1.0
  Y  Y3  1  0.25000000  0.50000000  0.86560000  1.0
  Y  Y4  1  0.25188000  0.00000000  0.05045000  1.0
  Y  Y5  1  0.27005000  0.50000000  0.05345000  1.0
  In  In6  2  0.21633000  0.24227000  0.14263000  1.0
  In  In7  2  0.25000000  0.25000000  0.95520000  1.0
  In  In8  1  0.75000000  0.00000000  0.86560000  1.0
  In  In9  1  0.75000000  0.50000000  0.86560000  1.0
  In  In10  1  0.75042000  0.00000000  0.04537000  1.0
  In  In11  1  0.75669000  0.50000000  0.04274000  1.0
  Pd  Pd12  2  0.50000000  0.25000000  0.86560000  1.0
  Pd  Pd13  2  0.50111000  0.24931000  0.04208000  1.0
  Pd  Pd14  1  0.00000000  0.00000000  0.95520000  1.0
  Pd  Pd15  1  0.00000000  0.50000000  0.95520000  1.0
  Pd  Pd16  1  0.93311000  0.00000000  0.13764000  1.0
  Pd  Pd17  1  0.99626000  0.50000000  0.12988000  1.0
  Au  Au18  2  0.00000000  0.25000000  0.86560000  1.0
  Au  Au19  2  0.00728000  0.25279000  0.04456000  1.0
  Au  Au20  1  0.44728000  0.50000000  0.15554000  1.0
  Au  Au21  1  0.50000000  0.00000000  0.95520000  1.0
  Au  Au22  1  0.50000000  0.50000000  0.95520000  1.0
  Au  Au23  1  0.53061000  0.00000000  0.14347000  1.0
  C  C24  1  0.22508000  0.00000000  0.13898000  1.0
