# generated using pymatgen
data_Zr4Ni8Sb4C
_symmetry_space_group_name_H-M   'P 1'
_cell_length_a   6.34847000
_cell_length_b   6.34847000
_cell_length_c   24.76130000
_cell_angle_alpha   90.00000000
_cell_angle_beta   90.00000000
_cell_angle_gamma   90.00000000
_symmetry_Int_Tables_number   1
_chemical_formula_structural   Zr4Ni8Sb4C
_chemical_formula_sum   'Zr4 Ni8 Sb4 C1'
_cell_volume   997.95644039
_cell_formula_units_Z   1
loop_
 _symmetry_equiv_pos_site_id
 _symmetry_equiv_pos_as_xyz
  1  'x, y, z'
loop_
 _atom_site_type_symbol
 _atom_site_label
 _atom_site_symmetry_multiplicity
 _atom_site_fract_x
 _atom_site_fract_y
 _atom_site_fract_z
 _atom_site_occupancy
  Zr  Zr0  1  0.99999500  0.00000500  0.09614000  1
  Zr  Zr1  1  0.49999500  0.50000500  0.09614000  1
  Zr  Zr2  1  0.00000000  0.50004000  0.96436000  1
  Zr  Zr3  1  0.49996000  1.00000000  0.96436000  1
  Ni  Ni4  1  0.24999500  0.75000500  0.03205000  1
  Ni  Ni5  1  0.79716500  0.20283500  0.90271000  1
  Ni  Ni6  1  0.25000000  0.25001000  0.03205000  1
  Ni  Ni7  1  0.79718000  0.79737000  0.90267000  1
  Ni  Ni8  1  0.74999500  0.25000500  0.03205000  1
  Ni  Ni9  1  0.20264000  0.79736000  0.90279000  1
  Ni  Ni10  1  0.74999000  0.75000000  0.03205000  1
  Ni  Ni11  1  0.20263000  0.20282000  0.90267000  1
  Sb  Sb12  1  0.99995500  0.00004500  0.97952000  1
  Sb  Sb13  1  0.00000000  0.50001000  0.09614000  1
  Sb  Sb14  1  0.49999000  1.00000000  0.09614000  1
  Sb  Sb15  1  0.49999500  0.50000500  0.94196000  1
  C  C16  1  0.99986000  0.00014000  0.87732000  1
