# generated using pymatgen
data_Zr4Ni8Sb4C
_symmetry_space_group_name_H-M   Cm
_cell_length_a   8.97809237
_cell_length_b   8.97809237
_cell_length_c   24.76130000
_cell_angle_alpha   90.00000000
_cell_angle_beta   90.00000000
_cell_angle_gamma   90.00000000
_symmetry_Int_Tables_number   8
_chemical_formula_structural   Zr4Ni8Sb4C
_chemical_formula_sum   'Zr8 Ni16 Sb8 C2'
_cell_volume   1995.91288079
_cell_formula_units_Z   2
loop_
 _symmetry_equiv_pos_site_id
 _symmetry_equiv_pos_as_xyz
  1  'x, y, z'
  2  'x, -y, z'
  3  'x+1/2, y+1/2, z'
  4  'x+1/2, -y+1/2, z'
loop_
 _atom_site_type_symbol
 _atom_site_label
 _atom_site_symmetry_multiplicity
 _atom_site_fract_x
 _atom_site_fract_y
 _atom_site_fract_z
 _atom_site_occupancy
  Zr  Zr0  4  0.24998000  0.24998000  0.03564000  1.0
  Zr  Zr1  2  0.49999500  0.00000000  0.90386000  1.0
  Zr  Zr2  2  0.49999500  0.50000000  0.90386000  1.0
  Ni  Ni3  4  0.49990500  0.29727500  0.09733000  1.0
  Ni  Ni4  4  0.49999500  0.24999500  0.96795000  1.0
  Ni  Ni5  2  0.20264000  0.00000000  0.09721000  1.0
  Ni  Ni6  2  0.24999500  0.50000000  0.96795000  1.0
  Ni  Ni7  2  0.24999500  0.00000000  0.96795000  1.0
  Ni  Ni8  2  0.29716500  0.50000000  0.09729000  1.0
  Sb  Sb9  4  0.24999500  0.24999500  0.90386000  1.0
  Sb  Sb10  2  0.49995500  0.50000000  0.02048000  1.0
  Sb  Sb11  2  0.49999500  0.00000000  0.05804000  1.0
  C  C12  2  0.49986000  0.50000000  0.12268000  1.0
