# generated using pymatgen
data_BeRh
_symmetry_space_group_name_H-M   P4mm
_cell_length_a   2.78714000
_cell_length_b   2.78714000
_cell_length_c   24.18070000
_cell_angle_alpha   90.00000000
_cell_angle_beta   90.00000000
_cell_angle_gamma   90.00000000
_symmetry_Int_Tables_number   99
_chemical_formula_structural   BeRh
_chemical_formula_sum   'Be2 Rh2'
_cell_volume   187.83928970
_cell_formula_units_Z   2
loop_
 _symmetry_equiv_pos_site_id
 _symmetry_equiv_pos_as_xyz
  1  'x, y, z'
  2  '-y, x, z'
  3  '-x, -y, z'
  4  'y, -x, z'
  5  '-x, y, z'
  6  'y, x, z'
  7  'x, -y, z'
  8  '-y, -x, z'
loop_
 _atom_site_type_symbol
 _atom_site_label
 _atom_site_symmetry_multiplicity
 _atom_site_fract_x
 _atom_site_fract_y
 _atom_site_fract_z
 _atom_site_occupancy
  Be  Be0  1  0.50000000  0.50000000  0.05299000  1.0
  Be  Be1  1  0.50000000  0.50000000  0.93773000  1.0
  Rh  Rh2  1  0.00000000  0.00000000  0.11062000  1.0
  Rh  Rh3  1  0.00000000  0.00000000  0.99536000  1.0
