# generated using pymatgen
data_Y4Ga4Sn4Pd4C
_symmetry_space_group_name_H-M   'P 1'
_cell_length_a   8.88338000
_cell_length_b   6.14219000
_cell_length_c   24.60430000
_cell_angle_alpha   90.00000000
_cell_angle_beta   90.00000000
_cell_angle_gamma   90.00000000
_symmetry_Int_Tables_number   1
_chemical_formula_structural   Y4Ga4Sn4Pd4C
_chemical_formula_sum   'Y4 Ga4 Sn4 Pd4 C1'
_cell_volume   1342.49445459
_cell_formula_units_Z   1
loop_
 _symmetry_equiv_pos_site_id
 _symmetry_equiv_pos_as_xyz
  1  'x, y, z'
loop_
 _atom_site_type_symbol
 _atom_site_label
 _atom_site_symmetry_multiplicity
 _atom_site_fract_x
 _atom_site_fract_y
 _atom_site_fract_z
 _atom_site_occupancy
  Y  Y0  1  0.00000000  0.23517000  0.97147000  1.0
  Y  Y1  1  0.00000000  0.72587000  0.09357000  1.0
  Y  Y2  1  0.50000000  0.25851000  0.96661000  1.0
  Y  Y3  1  0.50000000  0.72587000  0.09357000  1.0
  Ga  Ga4  1  0.73951000  0.93209000  0.91677000  1.0
  Ga  Ga5  1  0.74998000  0.48391000  0.03119000  1.0
  Ga  Ga6  1  0.26049000  0.93209000  0.91677000  1.0
  Ga  Ga7  1  0.25002000  0.48391000  0.03119000  1.0
  Sn  Sn8  1  0.76296000  0.47590000  0.88769000  1.0
  Sn  Sn9  1  0.74998000  0.98391000  0.03119000  1.0
  Sn  Sn10  1  0.23704000  0.47590000  0.88769000  1.0
  Sn  Sn11  1  0.25002000  0.98391000  0.03119000  1.0
  Pd  Pd12  1  0.00000000  0.74364000  0.96419000  1.0
  Pd  Pd13  1  0.00000000  0.22587000  0.09357000  1.0
  Pd  Pd14  1  0.50000000  0.75155000  0.97486000  1.0
  Pd  Pd15  1  0.50000000  0.22587000  0.09357000  1.0
  C  C16  1  0.00000000  0.48779000  0.90103000  1.0
