# generated using pymatgen
data_ZrInAu2
_symmetry_space_group_name_H-M   'P 1'
_cell_length_a   4.85788723
_cell_length_b   4.85788723
_cell_length_c   25.15260000
_cell_angle_alpha   90.00000000
_cell_angle_beta   90.00000000
_cell_angle_gamma   90.00000000
_symmetry_Int_Tables_number   1
_chemical_formula_structural   ZrInAu2
_chemical_formula_sum   'Zr2 In2 Au4'
_cell_volume   593.57792542
_cell_formula_units_Z   2
loop_
 _symmetry_equiv_pos_site_id
 _symmetry_equiv_pos_as_xyz
  1  'x, y, z'
loop_
 _atom_site_type_symbol
 _atom_site_label
 _atom_site_symmetry_multiplicity
 _atom_site_fract_x
 _atom_site_fract_y
 _atom_site_fract_z
 _atom_site_occupancy
  Zr  Zr0  1  0.00000000  0.00000000  0.10243000  1.0
  Zr  Zr1  1  0.50000000  0.50000000  0.96586000  1.0
  In  In2  1  0.00000000  0.00000000  0.96586000  1.0
  In  In3  1  0.50000000  0.50000000  0.10243000  1.0
  Au  Au4  1  0.50000000  0.00000000  0.03414000  1.0
  Au  Au5  1  0.50000000  0.00000000  0.89757000  1.0
  Au  Au6  1  0.00000000  0.50000000  0.03414000  1.0
  Au  Au7  1  0.00000000  0.50000000  0.89757000  1.0
