# generated using pymatgen
data_Li8Cu8Ag8Sn8CO
_symmetry_space_group_name_H-M   Pm
_cell_length_a   6.43603000
_cell_length_b   9.10192000
_cell_length_c   26.82640000
_cell_angle_alpha   90.00000000
_cell_angle_beta   90.00000000
_cell_angle_gamma   90.00000000
_symmetry_Int_Tables_number   6
_chemical_formula_structural   Li8Cu8Ag8Sn8CO
_chemical_formula_sum   'Li8 Cu8 Ag8 Sn8 C1 O1'
_cell_volume   1571.49668684
_cell_formula_units_Z   1
loop_
 _symmetry_equiv_pos_site_id
 _symmetry_equiv_pos_as_xyz
  1  'x, y, z'
  2  'x, -y, z'
loop_
 _atom_site_type_symbol
 _atom_site_label
 _atom_site_symmetry_multiplicity
 _atom_site_fract_x
 _atom_site_fract_y
 _atom_site_fract_z
 _atom_site_occupancy
  Li  Li0  2  0.75000000  0.25000000  0.87277000  1.0
  Li  Li1  2  0.75431000  0.24942000  0.04371000  1.0
  Li  Li2  1  0.24358000  0.00000000  0.14571000  1.0
  Li  Li3  1  0.24711000  0.50000000  0.14057000  1.0
  Li  Li4  1  0.25000000  0.00000000  0.95759000  1.0
  Li  Li5  1  0.25000000  0.50000000  0.95759000  1.0
  Cu  Cu6  2  0.23901000  0.25103000  0.04444000  1.0
  Cu  Cu7  2  0.25000000  0.25000000  0.87277000  1.0
  Cu  Cu8  1  0.75000000  0.00000000  0.95759000  1.0
  Cu  Cu9  1  0.75000000  0.50000000  0.95759000  1.0
  Cu  Cu10  1  0.76049000  0.50000000  0.12462000  1.0
  Cu  Cu11  1  0.76643000  0.00000000  0.12481000  1.0
  Ag  Ag12  2  0.50000000  0.25000000  0.95759000  1.0
  Ag  Ag13  2  0.50727000  0.25064000  0.12654000  1.0
  Ag  Ag14  1  0.00000000  0.00000000  0.87277000  1.0
  Ag  Ag15  1  0.00000000  0.50000000  0.87277000  1.0
  Ag  Ag16  1  0.00436000  0.50000000  0.04345000  1.0
  Ag  Ag17  1  0.00679000  0.00000000  0.04353000  1.0
  Sn  Sn18  2  0.00000000  0.25000000  0.95759000  1.0
  Sn  Sn19  2  0.98542000  0.25143000  0.13596000  1.0
  Sn  Sn20  1  0.48715000  0.00000000  0.04854000  1.0
  Sn  Sn21  1  0.49150000  0.50000000  0.04624000  1.0
  Sn  Sn22  1  0.50000000  0.00000000  0.87277000  1.0
  Sn  Sn23  1  0.50000000  0.50000000  0.87277000  1.0
  C  C24  1  0.27026000  0.00000000  0.22404000  1.0
  O  O25  1  0.27650000  0.00000000  0.26647000  1.0
