# generated using pymatgen
data_Li8Ge8Pd8Pb8C
_symmetry_space_group_name_H-M   'P 1'
_cell_length_a   6.74945000
_cell_length_b   9.54516000
_cell_length_c   27.15890000
_cell_angle_alpha   90.00000000
_cell_angle_beta   90.00000000
_cell_angle_gamma   90.00000000
_symmetry_Int_Tables_number   1
_chemical_formula_structural   Li8Ge8Pd8Pb8C
_chemical_formula_sum   'Li8 Ge8 Pd8 Pb8 C1'
_cell_volume   1749.70073016
_cell_formula_units_Z   1
loop_
 _symmetry_equiv_pos_site_id
 _symmetry_equiv_pos_as_xyz
  1  'x, y, z'
loop_
 _atom_site_type_symbol
 _atom_site_label
 _atom_site_symmetry_multiplicity
 _atom_site_fract_x
 _atom_site_fract_y
 _atom_site_fract_z
 _atom_site_occupancy
  Li  Li0  1  0.25000000  0.00000000  0.95607000  1.0
  Li  Li1  1  0.25000000  0.50000000  0.95607000  1.0
  Li  Li2  1  0.75000000  0.25000000  0.86820000  1.0
  Li  Li3  1  0.75000000  0.75000000  0.86820000  1.0
  Li  Li4  1  0.20301000  0.51487000  0.13569000  1.0
  Li  Li5  1  0.20305000  0.98515000  0.13569000  1.0
  Li  Li6  1  0.77084000  0.74999000  0.05001000  1.0
  Li  Li7  1  0.78298000  0.25000000  0.05260000  1.0
  Ge  Ge8  1  0.00000000  0.00000000  0.86820000  1.0
  Ge  Ge9  1  0.00000000  0.50000000  0.86820000  1.0
  Ge  Ge10  1  0.50000000  0.75000000  0.95607000  1.0
  Ge  Ge11  1  0.50000000  0.25000000  0.95607000  1.0
  Ge  Ge12  1  0.01247000  0.50312000  0.04099000  1.0
  Ge  Ge13  1  0.01251000  0.99687000  0.04098000  1.0
  Ge  Ge14  1  0.42697000  0.25014000  0.12598000  1.0
  Ge  Ge15  1  0.46380000  0.74995000  0.12724000  1.0
  Pd  Pd16  1  0.75000000  0.00000000  0.95607000  1.0
  Pd  Pd17  1  0.75000000  0.50000000  0.95607000  1.0
  Pd  Pd18  1  0.25000000  0.25000000  0.86820000  1.0
  Pd  Pd19  1  0.25000000  0.75000000  0.86820000  1.0
  Pd  Pd20  1  0.81695000  0.45841000  0.11941000  1.0
  Pd  Pd21  1  0.81703000  0.04162000  0.11941000  1.0
  Pd  Pd22  1  0.16932000  0.74999000  0.06370000  1.0
  Pd  Pd23  1  0.27062000  0.24994000  0.03734000  1.0
  Pb  Pb24  1  0.00000000  0.25000000  0.95607000  1.0
  Pb  Pb25  1  0.00000000  0.75000000  0.95607000  1.0
  Pb  Pb26  1  0.50000000  0.50000000  0.86820000  1.0
  Pb  Pb27  1  0.50000000  0.00000000  0.86820000  1.0
  Pb  Pb28  1  0.89341000  0.75001000  0.15450000  1.0
  Pb  Pb29  1  0.98742000  0.25003000  0.18687000  1.0
  Pb  Pb30  1  0.48814000  0.98247000  0.04814000  1.0
  Pb  Pb31  1  0.48807000  0.51750000  0.04812000  1.0
  C  C32  1  0.71227000  0.24999000  0.13162000  1.0
