# generated using pymatgen
data_Li8Ga16Pt8CO
_symmetry_space_group_name_H-M   'P 1'
_cell_length_a   6.22326000
_cell_length_b   8.80102000
_cell_length_c   26.60080000
_cell_angle_alpha   90.00000000
_cell_angle_beta   90.00000000
_cell_angle_gamma   90.00000000
_symmetry_Int_Tables_number   1
_chemical_formula_structural   Li8Ga16Pt8CO
_chemical_formula_sum   'Li8 Ga16 Pt8 C1 O1'
_cell_volume   1456.95336712
_cell_formula_units_Z   1
loop_
 _symmetry_equiv_pos_site_id
 _symmetry_equiv_pos_as_xyz
  1  'x, y, z'
loop_
 _atom_site_type_symbol
 _atom_site_label
 _atom_site_symmetry_multiplicity
 _atom_site_fract_x
 _atom_site_fract_y
 _atom_site_fract_z
 _atom_site_occupancy
  Li  Li0  1  0.50000000  0.75000000  0.87593000  1.0
  Li  Li1  1  0.00000000  0.00000000  0.95864000  1.0
  Li  Li2  1  0.00000000  0.50000000  0.95864000  1.0
  Li  Li3  1  0.50000000  0.25000000  0.87593000  1.0
  Li  Li4  1  0.50000000  0.25260000  0.04395000  1.0
  Li  Li5  1  0.00000000  0.50000000  0.17009000  1.0
  Li  Li6  1  0.00000000  0.00000000  0.14498000  1.0
  Li  Li7  1  0.50000000  0.74740000  0.04395000  1.0
  Ga  Ga8  1  0.75003000  0.75000000  0.95864000  1.0
  Ga  Ga9  1  0.24997000  0.25000000  0.95864000  1.0
  Ga  Ga10  1  0.24997000  0.75000000  0.95864000  1.0
  Ga  Ga11  1  0.75003000  0.25000000  0.95864000  1.0
  Ga  Ga12  1  0.25003000  0.50000000  0.87593000  1.0
  Ga  Ga13  1  0.75003000  0.00000000  0.87593000  1.0
  Ga  Ga14  1  0.74997000  0.50000000  0.87593000  1.0
  Ga  Ga15  1  0.24997000  0.00000000  0.87593000  1.0
  Ga  Ga16  1  0.76299000  0.26438000  0.12975000  1.0
  Ga  Ga17  1  0.23701000  0.73562000  0.12975000  1.0
  Ga  Ga18  1  0.23701000  0.26438000  0.12975000  1.0
  Ga  Ga19  1  0.76299000  0.73562000  0.12975000  1.0
  Ga  Ga20  1  0.24575000  0.00000000  0.04989000  1.0
  Ga  Ga21  1  0.76984000  0.50000000  0.04432000  1.0
  Ga  Ga22  1  0.75425000  0.00000000  0.04989000  1.0
  Ga  Ga23  1  0.23016000  0.50000000  0.04432000  1.0
  Pt  Pt24  1  0.50000000  0.50000000  0.95864000  1.0
  Pt  Pt25  1  0.00000000  0.75000000  0.87593000  1.0
  Pt  Pt26  1  0.50000000  0.00000000  0.95864000  1.0
  Pt  Pt27  1  0.00000000  0.25000000  0.87593000  1.0
  Pt  Pt28  1  0.50000000  0.00000000  0.13162000  1.0
  Pt  Pt29  1  0.00000000  0.24538000  0.03725000  1.0
  Pt  Pt30  1  0.50000000  0.50000000  0.11785000  1.0
  Pt  Pt31  1  0.00000000  0.75462000  0.03725000  1.0
  C  C32  1  0.50000000  0.00000000  0.20351000  1.0
  O  O33  1  0.50000000  0.00000000  0.24707000  1.0
