data_image0
_chemical_formula_structural       Al4V4Co8Al4V4Co8CO
_chemical_formula_sum              "Al8 V8 Co16 C1 O1"
_cell_length_a       5.76795
_cell_length_b       8.15711
_cell_length_c       26.1178
_cell_angle_alpha    90
_cell_angle_beta     90
_cell_angle_gamma    90

_space_group_name_H-M_alt    "P 1"
_space_group_IT_number       1

loop_
  _space_group_symop_operation_xyz
  'x, y, z'

loop_
  _atom_site_type_symbol
  _atom_site_label
  _atom_site_symmetry_multiplicity
  _atom_site_fract_x
  _atom_site_fract_y
  _atom_site_fract_z
  _atom_site_occupancy
  Al  Al1       1.0  0.00000  0.00000  0.88288  1.0000
  Al  Al2       1.0  0.50000  0.25000  0.96096  1.0000
  Al  Al3       1.0  0.50000  0.75000  0.96096  1.0000
  Al  Al4       1.0  0.00000  0.50000  0.88288  1.0000
  V   V1        1.0  0.00000  0.75000  0.96096  1.0000
  V   V2        1.0  0.50000  0.00000  0.88288  1.0000
  V   V3        1.0  0.00000  0.25000  0.96096  1.0000
  V   V4        1.0  0.50000  0.50000  0.88288  1.0000
  Co  Co1       1.0  0.25000  0.00000  0.96096  1.0000
  Co  Co2       1.0  0.75000  0.50000  0.96096  1.0000
  Co  Co3       1.0  0.75000  0.00000  0.96096  1.0000
  Co  Co4       1.0  0.25000  0.50000  0.96096  1.0000
  Co  Co5       1.0  0.75000  0.75000  0.88288  1.0000
  Co  Co6       1.0  0.25000  0.25000  0.88288  1.0000
  Co  Co7       1.0  0.25000  0.75000  0.88288  1.0000
  Co  Co8       1.0  0.75000  0.25000  0.88288  1.0000
  Al  Al5       1.0  0.00000  0.50000  0.03904  1.0000
  Al  Al6       1.0  0.50000  0.75000  0.11712  1.0000
  Al  Al7       1.0  0.50000  0.25000  0.11712  1.0000
  Al  Al8       1.0  0.00000  0.00000  0.03904  1.0000
  V   V5        1.0  0.00000  0.25000  0.11712  1.0000
  V   V6        1.0  0.50000  0.50000  0.03904  1.0000
  V   V7        1.0  0.00000  0.75000  0.11712  1.0000
  V   V8        1.0  0.50000  0.00000  0.03904  1.0000
  Co  Co9       1.0  0.25000  0.50000  0.11712  1.0000
  Co  Co10      1.0  0.75000  0.00000  0.11712  1.0000
  Co  Co11      1.0  0.75000  0.50000  0.11712  1.0000
  Co  Co12      1.0  0.25000  0.00000  0.11712  1.0000
  Co  Co13      1.0  0.75000  0.25000  0.03904  1.0000
  Co  Co14      1.0  0.25000  0.75000  0.03904  1.0000
  Co  Co15      1.0  0.25000  0.25000  0.03904  1.0000
  Co  Co16      1.0  0.75000  0.75000  0.03904  1.0000
  C   C1        1.0  0.50000  0.25000  0.18987  1.0000
  O   O1        1.0  0.50000  0.25000  0.23390  1.0000
