# generated using pymatgen
data_Li4Hf4Ge4Pd4CO
_symmetry_space_group_name_H-M   'P 1'
_cell_length_a   6.42607000
_cell_length_b   6.42607000
_cell_length_c   24.81960000
_cell_angle_alpha   90.00000000
_cell_angle_beta   90.00000000
_cell_angle_gamma   90.00000000
_symmetry_Int_Tables_number   1
_chemical_formula_structural   Li4Hf4Ge4Pd4CO
_chemical_formula_sum   'Li4 Hf4 Ge4 Pd4 C1 O1'
_cell_volume   1024.90988576
_cell_formula_units_Z   1
loop_
 _symmetry_equiv_pos_site_id
 _symmetry_equiv_pos_as_xyz
  1  'x, y, z'
loop_
 _atom_site_type_symbol
 _atom_site_label
 _atom_site_symmetry_multiplicity
 _atom_site_fract_x
 _atom_site_fract_y
 _atom_site_fract_z
 _atom_site_occupancy
  Li  Li0  1  0.24875000  0.24875000  0.03267000  1
  Li  Li1  1  0.75003000  0.24997000  0.90291000  1
  Li  Li2  1  0.24997000  0.75003000  0.90291000  1
  Li  Li3  1  0.75125000  0.75125000  0.03267000  1
  Hf  Hf4  1  0.25047000  0.74953000  0.03477000  1
  Hf  Hf5  1  0.75001000  0.75001000  0.90291000  1
  Hf  Hf6  1  0.24999000  0.24999000  0.90291000  1
  Hf  Hf7  1  0.74953000  0.25047000  0.03477000  1
  Ge  Ge8  1  0.50000000  0.00000000  0.09392000  1
  Ge  Ge9  1  1.00000000  0.00000000  0.96764000  1
  Ge  Ge10  1  0.50000000  0.50000000  0.96764000  1
  Ge  Ge11  1  0.00000000  0.50000000  0.09392000  1
  Pd  Pd12  1  0.00000000  0.00000000  0.09772000  1
  Pd  Pd13  1  0.50000000  0.00000000  0.96764000  1
  Pd  Pd14  1  0.00000000  0.50000000  0.96764000  1
  Pd  Pd15  1  0.50000000  0.50000000  0.09270000  1
  C  C16  1  1.00000000  0.00000000  0.18060000  1
  O  O17  1  1.00000000  0.00000000  0.22669000  1
