# generated using pymatgen
data_Y8Sc8Ga8Pd8C
_symmetry_space_group_name_H-M   Pmm2
_cell_length_a   7.06732000
_cell_length_b   9.48206000
_cell_length_c   27.39200000
_cell_angle_alpha   90.00000000
_cell_angle_beta   90.00000000
_cell_angle_gamma   90.00000000
_symmetry_Int_Tables_number   25
_chemical_formula_structural   Y8Sc8Ga8Pd8C
_chemical_formula_sum   'Y8 Sc8 Ga8 Pd8 C1'
_cell_volume   1835.61331043
_cell_formula_units_Z   1
loop_
 _symmetry_equiv_pos_site_id
 _symmetry_equiv_pos_as_xyz
  1  'x, y, z'
  2  '-x, -y, z'
  3  '-x, y, z'
  4  'x, -y, z'
loop_
 _atom_site_type_symbol
 _atom_site_label
 _atom_site_symmetry_multiplicity
 _atom_site_fract_x
 _atom_site_fract_y
 _atom_site_fract_z
 _atom_site_occupancy
  Y  Y0  2  0.00000000  0.24598000  0.14112000  1.0
  Y  Y1  2  0.00000000  0.25000000  0.95502000  1.0
  Y  Y2  2  0.50000000  0.25000000  0.95502000  1.0
  Y  Y3  2  0.50000000  0.26061000  0.14276000  1.0
  Sc  Sc4  1  0.00000000  0.00000000  0.04892000  1.0
  Sc  Sc5  1  0.00000000  0.00000000  0.86507000  1.0
  Sc  Sc6  1  0.00000000  0.50000000  0.04379000  1.0
  Sc  Sc7  1  0.00000000  0.50000000  0.86507000  1.0
  Sc  Sc8  1  0.50000000  0.00000000  0.04229000  1.0
  Sc  Sc9  1  0.50000000  0.00000000  0.86507000  1.0
  Sc  Sc10  1  0.50000000  0.50000000  0.04381000  1.0
  Sc  Sc11  1  0.50000000  0.50000000  0.86507000  1.0
  Ga  Ga12  4  0.25000000  0.25000000  0.86507000  1.0
  Ga  Ga13  4  0.25338000  0.25427000  0.04999000  1.0
  Pd  Pd14  2  0.24549000  0.50000000  0.12016000  1.0
  Pd  Pd15  2  0.25000000  0.00000000  0.95502000  1.0
  Pd  Pd16  2  0.25000000  0.50000000  0.95502000  1.0
  Pd  Pd17  2  0.29620000  0.00000000  0.12439000  1.0
  C  C18  1  0.00000000  0.00000000  0.12961000  1.0
