# generated using pymatgen
data_Li8Mg8In8Sn8C
_symmetry_space_group_name_H-M   Pm
_cell_length_a   7.01918000
_cell_length_b   9.92662000
_cell_length_c   27.44500000
_cell_angle_alpha   90.00000000
_cell_angle_beta   90.00000000
_cell_angle_gamma   90.00000000
_symmetry_Int_Tables_number   6
_chemical_formula_structural   Li8Mg8In8Sn8C
_chemical_formula_sum   'Li8 Mg8 In8 Sn8 C1'
_cell_volume   1912.27792543
_cell_formula_units_Z   1
loop_
 _symmetry_equiv_pos_site_id
 _symmetry_equiv_pos_as_xyz
  1  'x, y, z'
  2  'x, -y, z'
loop_
 _atom_site_type_symbol
 _atom_site_label
 _atom_site_symmetry_multiplicity
 _atom_site_fract_x
 _atom_site_fract_y
 _atom_site_fract_z
 _atom_site_occupancy
  Li  Li0  2  0.75000000  0.25001000  0.95479000  1.0
  Li  Li1  2  0.75572000  0.27094000  0.14154000  1.0
  Li  Li2  1  0.25000000  0.00000000  0.86437000  1.0
  Li  Li3  1  0.25000000  0.50000000  0.86437000  1.0
  Li  Li4  1  0.25395000  0.50000000  0.04433000  1.0
  Li  Li5  1  0.25519000  0.00000000  0.04408000  1.0
  Mg  Mg6  2  0.24051000  0.22309000  0.16426000  1.0
  Mg  Mg7  2  0.25000000  0.25001000  0.95479000  1.0
  Mg  Mg8  1  0.74617000  0.00000000  0.04222000  1.0
  Mg  Mg9  1  0.75000000  0.00000000  0.86437000  1.0
  Mg  Mg10  1  0.75000000  0.50000000  0.86437000  1.0
  Mg  Mg11  1  0.75232000  0.50000000  0.05275000  1.0
  In  In12  2  0.00000000  0.25001000  0.86437000  1.0
  In  In13  2  0.02002000  0.25310000  0.05484000  1.0
  In  In14  1  0.47657000  0.50000000  0.14784000  1.0
  In  In15  1  0.50000000  0.00000000  0.95479000  1.0
  In  In16  1  0.50000000  0.50000000  0.95479000  1.0
  In  In17  1  0.52655000  0.00000000  0.14086000  1.0
  Sn  Sn18  2  0.48771000  0.25026000  0.05518000  1.0
  Sn  Sn19  2  0.50000000  0.24999000  0.86437000  1.0
  Sn  Sn20  1  0.00000000  0.00000000  0.95479000  1.0
  Sn  Sn21  1  0.00000000  0.50000000  0.95479000  1.0
  Sn  Sn22  1  0.02703000  0.50000000  0.14601000  1.0
  Sn  Sn23  1  0.97767000  0.00000000  0.13336000  1.0
  C  C24  1  0.24096000  0.00000000  0.17661000  1.0
