# generated using pymatgen
data_Ca8In8CO
_symmetry_space_group_name_H-M   'P 1'
_cell_length_a   7.80577000
_cell_length_b   7.80577000
_cell_length_c   25.85430000
_cell_angle_alpha   90.00000000
_cell_angle_beta   90.00000000
_cell_angle_gamma   90.00000000
_symmetry_Int_Tables_number   1
_chemical_formula_structural   Ca8In8CO
_chemical_formula_sum   'Ca8 In8 C1 O1'
_cell_volume   1575.30367002
_cell_formula_units_Z   1
loop_
 _symmetry_equiv_pos_site_id
 _symmetry_equiv_pos_as_xyz
  1  'x, y, z'
loop_
 _atom_site_type_symbol
 _atom_site_label
 _atom_site_symmetry_multiplicity
 _atom_site_fract_x
 _atom_site_fract_y
 _atom_site_fract_z
 _atom_site_occupancy
  Ca  Ca0  1  0.00000000  0.00000000  0.86857000  1.0
  Ca  Ca1  1  0.00030000  0.00034000  0.02113000  1.0
  Ca  Ca2  1  0.00000000  0.50000000  0.86857000  1.0
  Ca  Ca3  1  0.00029000  0.49967000  0.02119000  1.0
  Ca  Ca4  1  0.50000000  0.00000000  0.86857000  1.0
  Ca  Ca5  1  0.49970000  0.00031000  0.02119000  1.0
  Ca  Ca6  1  0.50000000  0.50000000  0.86857000  1.0
  Ca  Ca7  1  0.49978000  0.49972000  0.02127000  1.0
  In  In8  1  0.25000000  0.25000000  0.94405000  1.0
  In  In9  1  0.25006000  0.25002000  0.09522000  1.0
  In  In10  1  0.25000000  0.75000000  0.94405000  1.0
  In  In11  1  0.24977000  0.75000000  0.09714000  1.0
  In  In12  1  0.75000000  0.25000000  0.94405000  1.0
  In  In13  1  0.75001000  0.24985000  0.09718000  1.0
  In  In14  1  0.75000000  0.75000000  0.94405000  1.0
  In  In15  1  0.75035000  0.75020000  0.09533000  1.0
  C  C16  1  0.24978000  0.25009000  0.20351000  1.0
  O  O17  1  0.25003000  0.24992000  0.24753000  1.0
