data_image0
_chemical_formula_structural       Li16In8Ir8CO
_chemical_formula_sum              "Li16 In8 Ir8 C1 O1"
_cell_length_a       6.34973
_cell_length_b       8.97987
_cell_length_c       26.7349
_cell_angle_alpha    90
_cell_angle_beta     90
_cell_angle_gamma    90

_space_group_name_H-M_alt    "P 1"
_space_group_IT_number       1

loop_
  _space_group_symop_operation_xyz
  'x, y, z'

loop_
  _atom_site_type_symbol
  _atom_site_label
  _atom_site_symmetry_multiplicity
  _atom_site_fract_x
  _atom_site_fract_y
  _atom_site_fract_z
  _atom_site_occupancy
  Li  Li1       1.0  0.00000  0.75000  0.95801  1.0000
  Li  Li2       1.0  0.50000  0.00000  0.87404  1.0000
  Li  Li3       1.0  0.00000  0.25000  0.95801  1.0000
  Li  Li4       1.0  0.50000  0.50000  0.87404  1.0000
  Li  Li5       1.0  0.25000  0.00000  0.95801  1.0000
  Li  Li6       1.0  0.25000  0.50000  0.95801  1.0000
  Li  Li7       1.0  0.75000  0.75000  0.87404  1.0000
  Li  Li8       1.0  0.75000  0.25000  0.87404  1.0000
  Li  Li9       1.0  0.99364  0.25015  0.12314  1.0000
  Li  Li10      1.0  0.49885  0.50001  0.04278  1.0000
  Li  Li11      1.0  0.99362  0.74985  0.12314  1.0000
  Li  Li12      1.0  0.49088  0.00000  0.04211  1.0000
  Li  Li13      1.0  0.26325  0.50000  0.13143  1.0000
  Li  Li14      1.0  0.26537  0.00000  0.13385  1.0000
  Li  Li15      1.0  0.73876  0.24983  0.04137  1.0000
  Li  Li16      1.0  0.73880  0.75018  0.04137  1.0000
  In  In1       1.0  0.25000  0.25000  0.87404  1.0000
  In  In2       1.0  0.25000  0.75000  0.87404  1.0000
  In  In3       1.0  0.75000  0.50000  0.95801  1.0000
  In  In4       1.0  0.75000  0.00000  0.95801  1.0000
  In  In5       1.0  0.24278  0.74852  0.04005  1.0000
  In  In6       1.0  0.24278  0.25148  0.04005  1.0000
  In  In7       1.0  0.73133  0.00000  0.12856  1.0000
  In  In8       1.0  0.73124  0.50000  0.13128  1.0000
  Ir  Ir1       1.0  0.00000  0.00000  0.87404  1.0000
  Ir  Ir2       1.0  0.50000  0.25000  0.95801  1.0000
  Ir  Ir3       1.0  0.50000  0.75000  0.95801  1.0000
  Ir  Ir4       1.0  0.00000  0.50000  0.87404  1.0000
  Ir  Ir5       1.0  0.99043  0.50000  0.04738  1.0000
  Ir  Ir6       1.0  0.49850  0.74983  0.11948  1.0000
  Ir  Ir7       1.0  0.49848  0.25018  0.11948  1.0000
  Ir  Ir8       1.0  0.99613  0.00000  0.04668  1.0000
  C   C1        1.0  0.86313  0.00000  0.25791  1.0000
  O   O1        1.0  0.71727  0.00001  0.28256  1.0000
