# generated using pymatgen
data_Li16In8Ir8CO
_symmetry_space_group_name_H-M   'P 1'
_cell_length_a   8.97987000
_cell_length_b   6.34973000
_cell_length_c   26.73490000
_cell_angle_alpha   90.00000000
_cell_angle_beta   90.00000000
_cell_angle_gamma   90.00000000
_symmetry_Int_Tables_number   1
_chemical_formula_structural   Li16In8Ir8CO
_chemical_formula_sum   'Li16 In8 Ir8 C1 O1'
_cell_volume   1524.41731254
_cell_formula_units_Z   1
loop_
 _symmetry_equiv_pos_site_id
 _symmetry_equiv_pos_as_xyz
  1  'x, y, z'
loop_
 _atom_site_type_symbol
 _atom_site_label
 _atom_site_symmetry_multiplicity
 _atom_site_fract_x
 _atom_site_fract_y
 _atom_site_fract_z
 _atom_site_occupancy
  Li  Li0  1  0.75000000  0.00000000  0.04199000  1.0
  Li  Li1  1  0.00000000  0.50000000  0.12596000  1.0
  Li  Li2  1  0.25000000  0.00000000  0.04199000  1.0
  Li  Li3  1  0.50000000  0.50000000  0.12596000  1.0
  Li  Li4  1  0.00000000  0.25000000  0.04199000  1.0
  Li  Li5  1  0.50000000  0.25000000  0.04199000  1.0
  Li  Li6  1  0.75000000  0.75000000  0.12596000  1.0
  Li  Li7  1  0.25000000  0.75000000  0.12596000  1.0
  Li  Li8  1  0.25024000  0.99390000  0.87676000  1.0
  Li  Li9  1  0.50000000  0.49908000  0.95727000  1.0
  Li  Li10  1  0.74976000  0.99390000  0.87676000  1.0
  Li  Li11  1  0.00000000  0.49026000  0.95795000  1.0
  Li  Li12  1  0.50000000  0.26357000  0.86855000  1.0
  Li  Li13  1  0.00000000  0.26530000  0.86627000  1.0
  Li  Li14  1  0.24945000  0.73957000  0.95856000  1.0
  Li  Li15  1  0.75055000  0.73957000  0.95856000  1.0
  In  In16  1  0.25000000  0.25000000  0.12596000  1.0
  In  In17  1  0.75000000  0.25000000  0.12596000  1.0
  In  In18  1  0.50000000  0.75000000  0.04199000  1.0
  In  In19  1  0.00000000  0.75000000  0.04199000  1.0
  In  In20  1  0.74844000  0.24264000  0.96001000  1.0
  In  In21  1  0.25156000  0.24264000  0.96001000  1.0
  In  In22  1  0.00000000  0.73068000  0.87143000  1.0
  In  In23  1  0.50000000  0.73091000  0.86879000  1.0
  Ir  Ir24  1  0.00000000  0.00000000  0.12596000  1.0
  Ir  Ir25  1  0.25000000  0.50000000  0.04199000  1.0
  Ir  Ir26  1  0.75000000  0.50000000  0.04199000  1.0
  Ir  Ir27  1  0.50000000  0.00000000  0.12596000  1.0
  Ir  Ir28  1  0.50000000  0.99041000  0.95266000  1.0
  Ir  Ir29  1  0.74980000  0.49872000  0.88051000  1.0
  Ir  Ir30  1  0.25020000  0.49872000  0.88051000  1.0
  Ir  Ir31  1  0.00000000  0.99581000  0.95325000  1.0
  C  C32  1  0.00000000  0.86335000  0.74203000  1.0
  O  O33  1  0.00000000  0.71761000  0.71738000  1.0
