# generated using pymatgen
data_Li16In8Ir8CO
_symmetry_space_group_name_H-M   Pm
_cell_length_a   6.34973000
_cell_length_b   8.97987000
_cell_length_c   26.73490000
_cell_angle_alpha   90.00000000
_cell_angle_beta   90.00000000
_cell_angle_gamma   90.00000000
_symmetry_Int_Tables_number   6
_chemical_formula_structural   Li16In8Ir8CO
_chemical_formula_sum   'Li16 In8 Ir8 C1 O1'
_cell_volume   1524.41731254
_cell_formula_units_Z   1
loop_
 _symmetry_equiv_pos_site_id
 _symmetry_equiv_pos_as_xyz
  1  'x, y, z'
  2  'x, -y, z'
loop_
 _atom_site_type_symbol
 _atom_site_label
 _atom_site_symmetry_multiplicity
 _atom_site_fract_x
 _atom_site_fract_y
 _atom_site_fract_z
 _atom_site_occupancy
  Li  Li0  2  0.00000000  0.25000000  0.95801000  1.0
  Li  Li1  2  0.73957000  0.24945000  0.04144000  1.0
  Li  Li2  2  0.75000000  0.25000000  0.87404000  1.0
  Li  Li3  2  0.99390000  0.25024000  0.12324000  1.0
  Li  Li4  1  0.25000000  0.00000000  0.95801000  1.0
  Li  Li5  1  0.25000000  0.50000000  0.95801000  1.0
  Li  Li6  1  0.26357000  0.50000000  0.13145000  1.0
  Li  Li7  1  0.26530000  0.00000000  0.13373000  1.0
  Li  Li8  1  0.49026000  0.00000000  0.04205000  1.0
  Li  Li9  1  0.49908000  0.50000000  0.04273000  1.0
  Li  Li10  1  0.50000000  0.00000000  0.87404000  1.0
  Li  Li11  1  0.50000000  0.50000000  0.87404000  1.0
  In  In12  2  0.24264000  0.25156000  0.03999000  1.0
  In  In13  2  0.25000000  0.25000000  0.87404000  1.0
  In  In14  1  0.73068000  0.00000000  0.12857000  1.0
  In  In15  1  0.73091000  0.50000000  0.13121000  1.0
  In  In16  1  0.75000000  0.00000000  0.95801000  1.0
  In  In17  1  0.75000000  0.50000000  0.95801000  1.0
  Ir  Ir18  2  0.49872000  0.25020000  0.11949000  1.0
  Ir  Ir19  2  0.50000000  0.25000000  0.95801000  1.0
  Ir  Ir20  1  0.00000000  0.00000000  0.87404000  1.0
  Ir  Ir21  1  0.00000000  0.50000000  0.87404000  1.0
  Ir  Ir22  1  0.99041000  0.50000000  0.04734000  1.0
  Ir  Ir23  1  0.99581000  0.00000000  0.04675000  1.0
  C  C24  1  0.86335000  0.00000000  0.25797000  1.0
  O  O25  1  0.71761000  0.00000000  0.28262000  1.0
