# generated using pymatgen
data_Ti8Ni16Sn8CO
_symmetry_space_group_name_H-M   'P 1'
_cell_length_a   8.69561000
_cell_length_b   6.14873000
_cell_length_c   26.52170000
_cell_angle_alpha   90.00000000
_cell_angle_beta   90.00000000
_cell_angle_gamma   90.00000000
_symmetry_Int_Tables_number   1
_chemical_formula_structural   Ti8Ni16Sn8CO
_chemical_formula_sum   'Ti8 Ni16 Sn8 C1 O1'
_cell_volume   1418.03462199
_cell_formula_units_Z   1
loop_
 _symmetry_equiv_pos_site_id
 _symmetry_equiv_pos_as_xyz
  1  'x, y, z'
loop_
 _atom_site_type_symbol
 _atom_site_label
 _atom_site_symmetry_multiplicity
 _atom_site_fract_x
 _atom_site_fract_y
 _atom_site_fract_z
 _atom_site_occupancy
  Ti  Ti0  1  0.00000000  0.50000000  0.12295000  1.0
  Ti  Ti1  1  0.25000000  0.00000000  0.04098000  1.0
  Ti  Ti2  1  0.75000000  0.00000000  0.04098000  1.0
  Ti  Ti3  1  0.50000000  0.50000000  0.12295000  1.0
  Ti  Ti4  1  0.49796000  0.50000000  0.95751000  1.0
  Ti  Ti5  1  0.74997000  0.00000000  0.87918000  1.0
  Ti  Ti6  1  0.25004000  0.00000000  0.87938000  1.0
  Ti  Ti7  1  0.00200000  0.50000000  0.95750000  1.0
  Ni  Ni8  1  0.00000000  0.25002000  0.04098000  1.0
  Ni  Ni9  1  0.50000000  0.75002000  0.04098000  1.0
  Ni  Ni10  1  0.00000000  0.74998000  0.04098000  1.0
  Ni  Ni11  1  0.50000000  0.24998000  0.04098000  1.0
  Ni  Ni12  1  0.75000000  0.75002000  0.12295000  1.0
  Ni  Ni13  1  0.25000000  0.25002000  0.12295000  1.0
  Ni  Ni14  1  0.75000000  0.24998000  0.12295000  1.0
  Ni  Ni15  1  0.25000000  0.74998000  0.12295000  1.0
  Ni  Ni16  1  0.50002000  0.23912000  0.88190000  1.0
  Ni  Ni17  1  0.99996000  0.76116000  0.88192000  1.0
  Ni  Ni18  1  0.50002000  0.76088000  0.88190000  1.0
  Ni  Ni19  1  0.99996000  0.23884000  0.88192000  1.0
  Ni  Ni20  1  0.24997000  0.75217000  0.95657000  1.0
  Ni  Ni21  1  0.75005000  0.27256000  0.95344000  1.0
  Ni  Ni22  1  0.24997000  0.24783000  0.95657000  1.0
  Ni  Ni23  1  0.75005000  0.72744000  0.95344000  1.0
  Sn  Sn24  1  0.75000000  0.50000000  0.04098000  1.0
  Sn  Sn25  1  0.00000000  0.00000000  0.12295000  1.0
  Sn  Sn26  1  0.25000000  0.50000000  0.04098000  1.0
  Sn  Sn27  1  0.50000000  0.00000000  0.12295000  1.0
  Sn  Sn28  1  0.24989000  0.50000000  0.86916000  1.0
  Sn  Sn29  1  0.50548000  0.00000000  0.96141000  1.0
  Sn  Sn30  1  0.75005000  0.50000000  0.86368000  1.0
  Sn  Sn31  1  0.99451000  0.00000000  0.96144000  1.0
  C  C32  1  0.25072000  0.50000000  0.72319000  1.0
  O  O33  1  0.24991000  0.50000000  0.68037000  1.0
