# generated using pymatgen
data_Ti8Ni16Sn8CO
_symmetry_space_group_name_H-M   Pm
_cell_length_a   8.69561000
_cell_length_b   6.14873000
_cell_length_c   26.52170000
_cell_angle_alpha   90.00000000
_cell_angle_beta   90.00000000
_cell_angle_gamma   90.00000000
_symmetry_Int_Tables_number   6
_chemical_formula_structural   Ti8Ni16Sn8CO
_chemical_formula_sum   'Ti8 Ni16 Sn8 C1 O1'
_cell_volume   1418.03462199
_cell_formula_units_Z   1
loop_
 _symmetry_equiv_pos_site_id
 _symmetry_equiv_pos_as_xyz
  1  'x, y, z'
  2  'x, -y, z'
loop_
 _atom_site_type_symbol
 _atom_site_label
 _atom_site_symmetry_multiplicity
 _atom_site_fract_x
 _atom_site_fract_y
 _atom_site_fract_z
 _atom_site_occupancy
  Ti  Ti0  1  0.00000000  0.50000000  0.87705000  1.0
  Ti  Ti1  1  0.00200000  0.50000000  0.04250000  1.0
  Ti  Ti2  1  0.25000000  0.00000000  0.95902000  1.0
  Ti  Ti3  1  0.25004000  0.00000000  0.12062000  1.0
  Ti  Ti4  1  0.49796000  0.50000000  0.04249000  1.0
  Ti  Ti5  1  0.50000000  0.50000000  0.87705000  1.0
  Ti  Ti6  1  0.74997000  0.00000000  0.12082000  1.0
  Ti  Ti7  1  0.75000000  0.00000000  0.95902000  1.0
  Ni  Ni8  2  0.00000000  0.25002000  0.95902000  1.0
  Ni  Ni9  2  0.24997000  0.24783000  0.04343000  1.0
  Ni  Ni10  2  0.25000000  0.25002000  0.87705000  1.0
  Ni  Ni11  2  0.50000000  0.24998000  0.95902000  1.0
  Ni  Ni12  2  0.50002000  0.23912000  0.11810000  1.0
  Ni  Ni13  2  0.75000000  0.24998000  0.87705000  1.0
  Ni  Ni14  2  0.75005000  0.27256000  0.04656000  1.0
  Ni  Ni15  2  0.99996000  0.23884000  0.11808000  1.0
  Sn  Sn16  1  0.00000000  0.00000000  0.87705000  1.0
  Sn  Sn17  1  0.24989000  0.50000000  0.13084000  1.0
  Sn  Sn18  1  0.25000000  0.50000000  0.95902000  1.0
  Sn  Sn19  1  0.50000000  0.00000000  0.87705000  1.0
  Sn  Sn20  1  0.50548000  0.00000000  0.03859000  1.0
  Sn  Sn21  1  0.75000000  0.50000000  0.95902000  1.0
  Sn  Sn22  1  0.75005000  0.50000000  0.13632000  1.0
  Sn  Sn23  1  0.99451000  0.00000000  0.03856000  1.0
  C  C24  1  0.25072000  0.50000000  0.27681000  1.0
  O  O25  1  0.24991000  0.50000000  0.31963000  1.0
