# generated using pymatgen
data_LiInPdAu
_symmetry_space_group_name_H-M   'P 1'
_cell_length_a   5.60636000
_cell_length_b   4.44891000
_cell_length_c   24.18540000
_cell_angle_alpha   90.00000000
_cell_angle_beta   90.00000000
_cell_angle_gamma   90.00000000
_symmetry_Int_Tables_number   1
_chemical_formula_structural   LiInPdAu
_chemical_formula_sum   'Li2 In2 Pd2 Au2'
_cell_volume   603.23686785
_cell_formula_units_Z   2
loop_
 _symmetry_equiv_pos_site_id
 _symmetry_equiv_pos_as_xyz
  1  'x, y, z'
loop_
 _atom_site_type_symbol
 _atom_site_label
 _atom_site_symmetry_multiplicity
 _atom_site_fract_x
 _atom_site_fract_y
 _atom_site_fract_z
 _atom_site_occupancy
  Li  Li0  1  0.50000000  0.00000000  0.91347000  1.0
  Li  Li1  1  0.07079500  0.00000000  0.02783000  1.0
  In  In2  1  0.77396000  0.50000000  0.97116000  1.0
  In  In3  1  0.34838000  0.50000000  0.09326000  1.0
  Pd  Pd4  1  0.27396000  0.50000000  0.97116000  1.0
  Pd  Pd5  1  0.86510500  0.50000000  0.07955000  1.0
  Au  Au6  1  0.00000000  0.00000000  0.91347000  1.0
  Au  Au7  1  0.56467000  0.00000000  0.03685000  1.0
