# generated using pymatgen
data_Sc8Ga8Ge8Pd8CO
_symmetry_space_group_name_H-M   P1
_cell_length_a   8.08666000
_cell_length_b   8.58414000
_cell_length_c   25.87790000
_cell_angle_alpha   90.00000000
_cell_angle_beta   90.00000000
_cell_angle_gamma   90.00000000
_symmetry_Int_Tables_number   1
_chemical_formula_structural   Sc8Ga8Ge8Pd8CO
_chemical_formula_sum   'Sc8 Ga8 Ge8 Pd8 C1 O1'
_cell_volume   1796.36674255
_cell_formula_units_Z   1
loop_
 _symmetry_equiv_pos_site_id
 _symmetry_equiv_pos_as_xyz
  1  'x, y, z'
loop_
 _atom_site_type_symbol
 _atom_site_label
 _atom_site_symmetry_multiplicity
 _atom_site_fract_x
 _atom_site_fract_y
 _atom_site_fract_z
 _atom_site_occupancy
  Sc  Sc0  1  0.24692000  0.25067000  0.11663000  1.0
  Sc  Sc1  1  0.24693000  0.74934000  0.11664000  1.0
  Sc  Sc2  1  0.25000000  0.25000000  0.96214000  1.0
  Sc  Sc3  1  0.25000000  0.75000000  0.96214000  1.0
  Sc  Sc4  1  0.75000000  0.25000000  0.96214000  1.0
  Sc  Sc5  1  0.75000000  0.75000000  0.96214000  1.0
  Sc  Sc6  1  0.75307000  0.25067000  0.11662000  1.0
  Sc  Sc7  1  0.75307000  0.74934000  0.11664000  1.0
  Ga  Ga8  1  0.00000000  0.00000000  0.96214000  1.0
  Ga  Ga9  1  0.00000000  0.00004000  0.10298000  1.0
  Ga  Ga10  1  0.00000000  0.50000000  0.11871000  1.0
  Ga  Ga11  1  0.00000000  0.50000000  0.96214000  1.0
  Ga  Ga12  1  0.50000000  0.00000000  0.96214000  1.0
  Ga  Ga13  1  0.50000000  0.00002000  0.11639000  1.0
  Ga  Ga14  1  0.50000000  0.50000000  0.11856000  1.0
  Ga  Ga15  1  0.50000000  0.50000000  0.96214000  1.0
  Ge  Ge16  1  0.00000000  0.25000000  0.88643000  1.0
  Ge  Ge17  1  0.00000000  0.27284000  0.04035000  1.0
  Ge  Ge18  1  0.00000000  0.72719000  0.04036000  1.0
  Ge  Ge19  1  0.00000000  0.75000000  0.88643000  1.0
  Ge  Ge20  1  0.49999000  0.25230000  0.04251000  1.0
  Ge  Ge21  1  0.50000000  0.25000000  0.88643000  1.0
  Ge  Ge22  1  0.50000000  0.74769000  0.04251000  1.0
  Ge  Ge23  1  0.50000000  0.75000000  0.88643000  1.0
  Pd  Pd24  1  0.25000000  0.00000000  0.88643000  1.0
  Pd  Pd25  1  0.25000000  0.50000000  0.88643000  1.0
  Pd  Pd26  1  0.25519000  0.50001000  0.04272000  1.0
  Pd  Pd27  1  0.25843000  0.99998000  0.04118000  1.0
  Pd  Pd28  1  0.74155000  0.99999000  0.04117000  1.0
  Pd  Pd29  1  0.74481000  0.50001000  0.04272000  1.0
  Pd  Pd30  1  0.75000000  0.00000000  0.88643000  1.0
  Pd  Pd31  1  0.75000000  0.50000000  0.88643000  1.0
  C  C32  1  0.00008000  0.99979000  0.18059000  1.0
  O  O33  1  0.00000000  0.00000000  0.22614000  1.0
