# generated using pymatgen
data_Ni24Sn8CO
_symmetry_space_group_name_H-M   'P 1'
_cell_length_a   6.01786000
_cell_length_b   8.51054000
_cell_length_c   26.38290000
_cell_angle_alpha   90.00000000
_cell_angle_beta   90.00000000
_cell_angle_gamma   90.00000000
_symmetry_Int_Tables_number   1
_chemical_formula_structural   Ni24Sn8CO
_chemical_formula_sum   'Ni24 Sn8 C1 O1'
_cell_volume   1351.20650908
_cell_formula_units_Z   1
loop_
 _symmetry_equiv_pos_site_id
 _symmetry_equiv_pos_as_xyz
  1  'x, y, z'
loop_
 _atom_site_type_symbol
 _atom_site_label
 _atom_site_symmetry_multiplicity
 _atom_site_fract_x
 _atom_site_fract_y
 _atom_site_fract_z
 _atom_site_occupancy
  Ni  Ni0  1  0.25000000  0.00000000  0.95968000  1.0
  Ni  Ni1  1  0.75000000  0.50000000  0.95968000  1.0
  Ni  Ni2  1  0.75000000  0.00000000  0.95968000  1.0
  Ni  Ni3  1  0.25000000  0.50000000  0.95968000  1.0
  Ni  Ni4  1  0.75000000  0.75000000  0.87903000  1.0
  Ni  Ni5  1  0.25000000  0.25000000  0.87903000  1.0
  Ni  Ni6  1  0.25000000  0.75000000  0.87903000  1.0
  Ni  Ni7  1  0.75000000  0.25000000  0.87903000  1.0
  Ni  Ni8  1  0.00000000  0.75000000  0.95968000  1.0
  Ni  Ni9  1  0.50000000  0.00000000  0.87903000  1.0
  Ni  Ni10  1  0.00000000  0.25000000  0.95968000  1.0
  Ni  Ni11  1  0.50000000  0.50000000  0.87903000  1.0
  Ni  Ni12  1  0.24218000  0.50005000  0.11596000  1.0
  Ni  Ni13  1  0.74771000  0.00005000  0.11579000  1.0
  Ni  Ni14  1  0.76410000  0.50000000  0.11672000  1.0
  Ni  Ni15  1  0.26031000  0.00005000  0.12076000  1.0
  Ni  Ni16  1  0.74287000  0.24811000  0.04093000  1.0
  Ni  Ni17  1  0.25940000  0.74876000  0.04111000  1.0
  Ni  Ni18  1  0.25946000  0.25128000  0.04113000  1.0
  Ni  Ni19  1  0.74297000  0.75192000  0.04094000  1.0
  Ni  Ni20  1  0.00310000  0.24290000  0.11779000  1.0
  Ni  Ni21  1  0.50021000  0.50004000  0.03966000  1.0
  Ni  Ni22  1  0.00305000  0.75714000  0.11787000  1.0
  Ni  Ni23  1  0.49225000  0.00004000  0.03986000  1.0
  Sn  Sn24  1  0.00000000  0.00000000  0.87903000  1.0
  Sn  Sn25  1  0.50000000  0.25000000  0.95968000  1.0
  Sn  Sn26  1  0.50000000  0.75000000  0.95968000  1.0
  Sn  Sn27  1  0.00000000  0.50000000  0.87903000  1.0
  Sn  Sn28  1  0.99999000  0.49988000  0.03683000  1.0
  Sn  Sn29  1  0.50603000  0.74254000  0.12621000  1.0
  Sn  Sn30  1  0.50618000  0.25762000  0.12618000  1.0
  Sn  Sn31  1  0.00628000  0.00007000  0.03720000  1.0
  C  C32  1  0.02409000  0.99980000  0.16639000  1.0
  O  O33  1  0.95062000  0.00002000  0.20798000  1.0
