# generated using pymatgen
data_Li4In4Ge4Au4CO
_symmetry_space_group_name_H-M   Pm
_cell_length_a   5.96101000
_cell_length_b   8.57796000
_cell_length_c   24.47060000
_cell_angle_alpha   90.00000000
_cell_angle_beta   90.00000000
_cell_angle_gamma   90.00000000
_symmetry_Int_Tables_number   6
_chemical_formula_structural   Li4In4Ge4Au4CO
_chemical_formula_sum   'Li4 In4 Ge4 Au4 C1 O1'
_cell_volume   1251.26266164
_cell_formula_units_Z   1
loop_
 _symmetry_equiv_pos_site_id
 _symmetry_equiv_pos_as_xyz
  1  'x, y, z'
  2  'x, -y, z'
loop_
 _atom_site_type_symbol
 _atom_site_label
 _atom_site_symmetry_multiplicity
 _atom_site_fract_x
 _atom_site_fract_y
 _atom_site_fract_z
 _atom_site_occupancy
  Li  Li0  2  0.00440000  0.24959000  0.02482000  1.0
  Li  Li1  2  0.50000000  0.24997000  0.90865000  1.0
  In  In2  1  0.24790000  0.00000000  0.96955000  1.0
  In  In3  1  0.24790000  0.50000000  0.96955000  1.0
  In  In4  1  0.79372000  0.00000000  0.09755000  1.0
  In  In5  1  0.81169000  0.50000000  0.10019000  1.0
  Ge  Ge6  1  0.30748000  0.00000000  0.08370000  1.0
  Ge  Ge7  1  0.32806000  0.50000000  0.08409000  1.0
  Ge  Ge8  1  0.74790000  0.00000000  0.96955000  1.0
  Ge  Ge9  1  0.74790000  0.50000000  0.96955000  1.0
  Au  Au10  2  0.00000000  0.24997000  0.90865000  1.0
  Au  Au11  2  0.53168000  0.24960000  0.03454000  1.0
  C  C12  1  0.14004000  0.00000000  0.23918000  1.0
  O  O13  1  0.31273000  0.00000000  0.25883000  1.0
