# generated using pymatgen
data_Li4Al4Cu4Ge4CO
_symmetry_space_group_name_H-M   'P 1'
_cell_length_a   7.77412000
_cell_length_b   5.44580000
_cell_length_c   24.08340000
_cell_angle_alpha   90.00000000
_cell_angle_beta   90.00000000
_cell_angle_gamma   90.00000000
_symmetry_Int_Tables_number   1
_chemical_formula_structural   Li4Al4Cu4Ge4CO
_chemical_formula_sum   'Li4 Al4 Cu4 Ge4 C1 O1'
_cell_volume   1019.60211235
_cell_formula_units_Z   1
loop_
 _symmetry_equiv_pos_site_id
 _symmetry_equiv_pos_as_xyz
  1  'x, y, z'
loop_
 _atom_site_type_symbol
 _atom_site_label
 _atom_site_symmetry_multiplicity
 _atom_site_fract_x
 _atom_site_fract_y
 _atom_site_fract_z
 _atom_site_occupancy
  Li  Li0  1  0.00000000  0.74450000  0.02826000  1.0
  Li  Li1  1  0.00000000  0.25683000  0.89829000  1.0
  Li  Li2  1  0.50000000  0.74450000  0.02826000  1.0
  Li  Li3  1  0.50000000  0.25312000  0.90190000  1.0
  Al  Al4  1  0.75002000  0.00000000  0.08478000  1.0
  Al  Al5  1  0.74891000  0.50247000  0.96732000  1.0
  Al  Al6  1  0.24998000  0.00000000  0.08478000  1.0
  Al  Al7  1  0.25109000  0.50247000  0.96732000  1.0
  Cu  Cu8  1  0.75002000  0.50000000  0.08478000  1.0
  Cu  Cu9  1  0.74869000  0.00612000  0.96624000  1.0
  Cu  Cu10  1  0.24998000  0.50000000  0.08478000  1.0
  Cu  Cu11  1  0.25131000  0.00612000  0.96624000  1.0
  Ge  Ge12  1  0.00000000  0.24450000  0.02826000  1.0
  Ge  Ge13  1  0.00000000  0.77099000  0.91661000  1.0
  Ge  Ge14  1  0.50000000  0.24450000  0.02826000  1.0
  Ge  Ge15  1  0.50000000  0.76613000  0.91384000  1.0
  C  C16  1  0.00000000  0.23995000  0.81026000  1.0
  O  O17  1  0.00000000  0.22400000  0.76312000  1.0
