# generated using pymatgen
data_Li4Al4Cu4Ge4CO
_symmetry_space_group_name_H-M   Pm
_cell_length_a   5.44580000
_cell_length_b   7.77412000
_cell_length_c   24.08340000
_cell_angle_alpha   90.00000000
_cell_angle_beta   90.00000000
_cell_angle_gamma   90.00000000
_symmetry_Int_Tables_number   6
_chemical_formula_structural   Li4Al4Cu4Ge4CO
_chemical_formula_sum   'Li4 Al4 Cu4 Ge4 C1 O1'
_cell_volume   1019.60211235
_cell_formula_units_Z   1
loop_
 _symmetry_equiv_pos_site_id
 _symmetry_equiv_pos_as_xyz
  1  'x, y, z'
  2  'x, -y, z'
loop_
 _atom_site_type_symbol
 _atom_site_label
 _atom_site_symmetry_multiplicity
 _atom_site_fract_x
 _atom_site_fract_y
 _atom_site_fract_z
 _atom_site_occupancy
  Li  Li0  1  0.25312000  0.50000000  0.09810000  1.0
  Li  Li1  1  0.25683000  0.00000000  0.10171000  1.0
  Li  Li2  1  0.74450000  0.00000000  0.97174000  1.0
  Li  Li3  1  0.74450000  0.50000000  0.97174000  1.0
  Al  Al4  2  0.00000000  0.24998000  0.91522000  1.0
  Al  Al5  2  0.50247000  0.25109000  0.03268000  1.0
  Cu  Cu6  2  0.00612000  0.25131000  0.03376000  1.0
  Cu  Cu7  2  0.50000000  0.24998000  0.91522000  1.0
  Ge  Ge8  1  0.24450000  0.00000000  0.97174000  1.0
  Ge  Ge9  1  0.24450000  0.50000000  0.97174000  1.0
  Ge  Ge10  1  0.76613000  0.50000000  0.08616000  1.0
  Ge  Ge11  1  0.77099000  0.00000000  0.08339000  1.0
  C  C12  1  0.23995000  0.00000000  0.18974000  1.0
  O  O13  1  0.22400000  0.00000000  0.23688000  1.0
