# generated using pymatgen
data_Li16Zn8Ge8CO
_symmetry_space_group_name_H-M   Pm
_cell_length_a   6.18893000
_cell_length_b   8.75246000
_cell_length_c   26.56430000
_cell_angle_alpha   90.00000000
_cell_angle_beta   90.00000000
_cell_angle_gamma   90.00000000
_symmetry_Int_Tables_number   6
_chemical_formula_structural   Li16Zn8Ge8CO
_chemical_formula_sum   'Li16 Zn8 Ge8 C1 O1'
_cell_volume   1438.94462579
_cell_formula_units_Z   1
loop_
 _symmetry_equiv_pos_site_id
 _symmetry_equiv_pos_as_xyz
  1  'x, y, z'
  2  'x, -y, z'
loop_
 _atom_site_type_symbol
 _atom_site_label
 _atom_site_symmetry_multiplicity
 _atom_site_fract_x
 _atom_site_fract_y
 _atom_site_fract_z
 _atom_site_occupancy
  Li  Li0  2  0.24946000  0.24968000  0.04209000  1.0
  Li  Li1  2  0.25000000  0.25000000  0.87644000  1.0
  Li  Li2  2  0.49265000  0.25399000  0.12572000  1.0
  Li  Li3  2  0.50000000  0.25000000  0.95881000  1.0
  Li  Li4  1  -0.00000000  0.50000000  0.87644000  1.0
  Li  Li5  1  0.00000000  0.00000000  0.87644000  1.0
  Li  Li6  1  0.75000000  0.00000000  0.95881000  1.0
  Li  Li7  1  0.75000000  0.50000000  0.95881000  1.0
  Li  Li8  1  0.77898000  0.00000000  0.13755000  1.0
  Li  Li9  1  0.77921000  0.50000000  0.14502000  1.0
  Li  Li10  1  0.98099000  0.00000000  0.04087000  1.0
  Li  Li11  1  0.98704000  0.50000000  0.04520000  1.0
  Zn  Zn12  2  0.75000000  0.25000000  0.87644000  1.0
  Zn  Zn13  2  0.75026000  0.25114000  0.04314000  1.0
  Zn  Zn14  1  0.21939000  0.00000000  0.11952000  1.0
  Zn  Zn15  1  0.23202000  0.50000000  0.12577000  1.0
  Zn  Zn16  1  0.25000000  0.00000000  0.95881000  1.0
  Zn  Zn17  1  0.25000000  0.50000000  0.95881000  1.0
  Ge  Ge18  2  -0.00000000  0.25000000  0.95881000  1.0
  Ge  Ge19  2  0.99764000  0.25390000  0.12600000  1.0
  Ge  Ge20  1  0.50000000  0.00000000  0.87644000  1.0
  Ge  Ge21  1  0.50000000  0.50000000  0.87644000  1.0
  Ge  Ge22  1  0.50729000  0.50000000  0.04786000  1.0
  Ge  Ge23  1  0.50960000  0.00000000  0.04534000  1.0
  C  C24  1  0.36967000  0.00000000  0.19264000  1.0
  O  O25  1  0.35060000  0.00000000  0.23596000  1.0
