# generated using pymatgen
data_NbZn3
_symmetry_space_group_name_H-M   'P 1'
_cell_length_a   3.94500500
_cell_length_b   5.57908000
_cell_length_c   24.18430000
_cell_angle_alpha   90.00000000
_cell_angle_beta   90.00000000
_cell_angle_gamma   90.00000000
_symmetry_Int_Tables_number   1
_chemical_formula_structural   NbZn3
_chemical_formula_sum   'Nb2 Zn6'
_cell_volume   532.28431446
_cell_formula_units_Z   2
loop_
 _symmetry_equiv_pos_site_id
 _symmetry_equiv_pos_as_xyz
  1  'x, y, z'
loop_
 _atom_site_type_symbol
 _atom_site_label
 _atom_site_symmetry_multiplicity
 _atom_site_fract_x
 _atom_site_fract_y
 _atom_site_fract_z
 _atom_site_occupancy
  Nb  Nb0  1  0.00000000  0.00000000  0.91349000  1.0
  Nb  Nb1  1  0.00000000  0.50000000  0.02756500  1.0
  Zn  Zn2  1  0.00000000  0.50000000  0.91349000  1.0
  Zn  Zn3  1  0.50000000  0.75000000  0.97116000  1.0
  Zn  Zn4  1  0.50000000  0.25000000  0.97116000  1.0
  Zn  Zn5  1  0.00000000  0.00000000  0.03655500  1.0
  Zn  Zn6  1  0.50000000  0.25462000  0.08386000  1.0
  Zn  Zn7  1  0.50000000  0.74538000  0.08386000  1.0
