# generated using pymatgen
data_LiMgSnPd
_symmetry_space_group_name_H-M   'P 1'
_cell_length_a   4.61420000
_cell_length_b   6.52546000
_cell_length_c   26.92130000
_cell_angle_alpha   90.00000000
_cell_angle_beta   90.00000000
_cell_angle_gamma   90.00000000
_symmetry_Int_Tables_number   1
_chemical_formula_structural   LiMgSnPd
_chemical_formula_sum   'Li4 Mg4 Sn4 Pd4'
_cell_volume   810.59435387
_cell_formula_units_Z   4
loop_
 _symmetry_equiv_pos_site_id
 _symmetry_equiv_pos_as_xyz
  1  'x, y, z'
loop_
 _atom_site_type_symbol
 _atom_site_label
 _atom_site_symmetry_multiplicity
 _atom_site_fract_x
 _atom_site_fract_y
 _atom_site_fract_z
 _atom_site_occupancy
  Li  Li0  1  1.00000000  0.00000000  0.12855000  1.0
  Li  Li1  1  0.50000000  0.50000000  0.04285000  1.0
  Li  Li2  1  0.99994000  0.00738000  0.95436000  1.0
  Li  Li3  1  0.50001000  0.48032000  0.85712500  1.0
  Mg  Mg4  1  1.00000000  0.75000000  0.04285000  1.0
  Mg  Mg5  1  0.50000000  0.25000000  0.12855000  1.0
  Mg  Mg6  1  0.00001000  0.76018500  0.86902500  1.0
  Mg  Mg7  1  0.49989000  0.25854000  0.95496500  1.0
  Sn  Sn8  1  1.00000000  0.25000000  0.04285000  1.0
  Sn  Sn9  1  0.50000000  0.75000000  0.12855000  1.0
  Sn  Sn10  1  0.00001000  0.25067500  0.86302000  1.0
  Sn  Sn11  1  0.49997000  0.74361500  0.95353000  1.0
  Pd  Pd12  1  0.50000000  0.00000000  0.04285000  1.0
  Pd  Pd13  1  1.00000000  0.50000000  0.12855000  1.0
  Pd  Pd14  1  0.50001000  0.01175000  0.87643000  1.0
  Pd  Pd15  1  0.99996000  0.49786500  0.95744000  1.0
