# generated using pymatgen
data_Li16Pb16CO
_symmetry_space_group_name_H-M   Pmm2
_cell_length_a   7.21597000
_cell_length_b   10.20490000
_cell_length_c   27.65370000
_cell_angle_alpha   90.00000000
_cell_angle_beta   90.00000000
_cell_angle_gamma   90.00000000
_symmetry_Int_Tables_number   25
_chemical_formula_structural   Li16Pb16CO
_chemical_formula_sum   'Li16 Pb16 C1 O1'
_cell_volume   2036.37013633
_cell_formula_units_Z   1
loop_
 _symmetry_equiv_pos_site_id
 _symmetry_equiv_pos_as_xyz
  1  'x, y, z'
  2  '-x, -y, z'
  3  '-x, y, z'
  4  'x, -y, z'
loop_
 _atom_site_type_symbol
 _atom_site_label
 _atom_site_symmetry_multiplicity
 _atom_site_fract_x
 _atom_site_fract_y
 _atom_site_fract_z
 _atom_site_occupancy
  Li  Li0  4  0.24958000  0.25095000  0.13796000  1.0
  Li  Li1  4  0.25000000  0.24999000  0.95387000  1.0
  Li  Li2  2  0.25000000  0.00000000  0.86162000  1.0
  Li  Li3  2  0.25000000  0.50000000  0.86162000  1.0
  Li  Li4  2  0.25071000  0.50000000  0.04685000  1.0
  Li  Li5  2  0.25154000  0.00000000  0.04468000  1.0
  Pb  Pb6  2  0.00000000  0.24974000  0.04972000  1.0
  Pb  Pb7  2  0.00000000  0.24999000  0.86162000  1.0
  Pb  Pb8  2  0.50000000  0.24999000  0.86162000  1.0
  Pb  Pb9  2  0.50000000  0.25024000  0.05010000  1.0
  Pb  Pb10  1  0.00000000  0.00000000  0.13759000  1.0
  Pb  Pb11  1  0.00000000  0.00000000  0.95387000  1.0
  Pb  Pb12  1  0.00000000  0.50000000  0.14061000  1.0
  Pb  Pb13  1  0.00000000  0.50000000  0.95387000  1.0
  Pb  Pb14  1  0.50000000  0.00000000  0.13784000  1.0
  Pb  Pb15  1  0.50000000  0.00000000  0.95387000  1.0
  Pb  Pb16  1  0.50000000  0.50000000  0.14078000  1.0
  Pb  Pb17  1  0.50000000  0.50000000  0.95387000  1.0
  C  C18  1  0.00000000  0.00000000  0.28673000  1.0
  O  O19  1  0.00000000  0.00000000  0.32783000  1.0
