# generated using pymatgen
data_Li4Zn4Ag4Ge4CO
_symmetry_space_group_name_H-M   P2
_cell_length_a   6.35563000
_cell_length_b   24.76670000
_cell_length_c   6.35563000
_cell_angle_alpha   90.00000000
_cell_angle_beta   90.00000000
_cell_angle_gamma   90.00000000
_symmetry_Int_Tables_number   3
_chemical_formula_structural   Li4Zn4Ag4Ge4CO
_chemical_formula_sum   'Li4 Zn4 Ag4 Ge4 C1 O1'
_cell_volume   1000.42688959
_cell_formula_units_Z   1
loop_
 _symmetry_equiv_pos_site_id
 _symmetry_equiv_pos_as_xyz
  1  'x, y, z'
  2  '-x, y, -z'
loop_
 _atom_site_type_symbol
 _atom_site_label
 _atom_site_symmetry_multiplicity
 _atom_site_fract_x
 _atom_site_fract_y
 _atom_site_fract_z
 _atom_site_occupancy
  Li  Li0  2  0.25001000  0.90377000  0.25004000  1.0
  Li  Li1  2  0.25128000  0.03525000  0.74901000  1.0
  Zn  Zn2  2  0.25001000  0.90377000  0.75004000  1.0
  Zn  Zn3  2  0.25349000  0.03681000  0.25296000  1.0
  Ag  Ag4  1  0.00000000  0.10246000  0.00000000  1.0
  Ag  Ag5  1  0.00000000  0.96792000  0.50000000  1.0
  Ag  Ag6  1  0.50000000  0.10629000  0.50000000  1.0
  Ag  Ag7  1  0.50000000  0.96792000  0.00000000  1.0
  Ge  Ge8  1  0.00000000  0.09911000  0.50000000  1.0
  Ge  Ge9  1  0.00000000  0.96792000  0.00000000  1.0
  Ge  Ge10  1  0.50000000  0.09954000  0.00000000  1.0
  Ge  Ge11  1  0.50000000  0.96792000  0.50000000  1.0
  C  C12  1  0.50000000  0.19828000  0.50000000  1.0
  O  O13  1  0.50000000  0.24423000  0.50000000  1.0
