data_image0
_chemical_formula_structural       Hf8Al8Ni16CO
_chemical_formula_sum              "Hf8 Al8 Ni16 C1 O1"
_cell_length_a       6.09317
_cell_length_b       8.61704
_cell_length_c       26.4628
_cell_angle_alpha    90
_cell_angle_beta     90
_cell_angle_gamma    90

_space_group_name_H-M_alt    "P 1"
_space_group_IT_number       1

loop_
  _space_group_symop_operation_xyz
  'x, y, z'

loop_
  _atom_site_type_symbol
  _atom_site_label
  _atom_site_symmetry_multiplicity
  _atom_site_fract_x
  _atom_site_fract_y
  _atom_site_fract_z
  _atom_site_occupancy
  Hf  Hf1       1.0  0.00000  0.00000  0.87789  1.0000
  Hf  Hf2       1.0  0.50000  0.25000  0.95930  1.0000
  Hf  Hf3       1.0  0.50000  0.75000  0.95930  1.0000
  Hf  Hf4       1.0  0.00000  0.50000  0.87789  1.0000
  Hf  Hf5       1.0  0.99997  0.49998  0.03917  1.0000
  Hf  Hf6       1.0  0.49977  0.74937  0.12527  1.0000
  Hf  Hf7       1.0  0.49977  0.25065  0.12528  1.0000
  Hf  Hf8       1.0  0.00182  0.00003  0.04032  1.0000
  Al  Al1       1.0  0.00000  0.75000  0.95930  1.0000
  Al  Al2       1.0  0.50000  0.00000  0.87789  1.0000
  Al  Al3       1.0  0.00000  0.25000  0.95930  1.0000
  Al  Al4       1.0  0.50000  0.50000  0.87789  1.0000
  Al  Al5       1.0  0.99634  0.25319  0.11960  1.0000
  Al  Al6       1.0  0.49973  0.50002  0.04206  1.0000
  Al  Al7       1.0  0.99629  0.74681  0.11962  1.0000
  Al  Al8       1.0  0.49800  0.00001  0.04307  1.0000
  Ni  Ni1       1.0  0.25000  0.00000  0.95930  1.0000
  Ni  Ni2       1.0  0.75000  0.50000  0.95930  1.0000
  Ni  Ni3       1.0  0.75000  0.00000  0.95930  1.0000
  Ni  Ni4       1.0  0.25000  0.50000  0.95930  1.0000
  Ni  Ni5       1.0  0.75000  0.75000  0.87789  1.0000
  Ni  Ni6       1.0  0.25000  0.25000  0.87789  1.0000
  Ni  Ni7       1.0  0.25000  0.75000  0.87789  1.0000
  Ni  Ni8       1.0  0.75000  0.25000  0.87789  1.0000
  Ni  Ni9       1.0  0.24142  0.50009  0.11681  1.0000
  Ni  Ni10      1.0  0.76447  0.99994  0.11621  1.0000
  Ni  Ni11      1.0  0.75699  0.50010  0.11710  1.0000
  Ni  Ni12      1.0  0.23346  0.99992  0.12810  1.0000
  Ni  Ni13      1.0  0.73346  0.24928  0.04313  1.0000
  Ni  Ni14      1.0  0.26790  0.75110  0.04406  1.0000
  Ni  Ni15      1.0  0.26774  0.24892  0.04402  1.0000
  Ni  Ni16      1.0  0.73329  0.75074  0.04317  1.0000
  C   C1        1.0  0.31300  0.99998  0.19255  1.0000
  O   O1        1.0  0.34305  0.99999  0.23618  1.0000
