# generated using pymatgen
data_Hf8Al8Ni16CO
_symmetry_space_group_name_H-M   'P 1'
_cell_length_a   6.09317000
_cell_length_b   8.61704000
_cell_length_c   26.46280000
_cell_angle_alpha   90.00000000
_cell_angle_beta   90.00000000
_cell_angle_gamma   90.00000000
_symmetry_Int_Tables_number   1
_chemical_formula_structural   Hf8Al8Ni16CO
_chemical_formula_sum   'Hf8 Al8 Ni16 C1 O1'
_cell_volume   1389.43168551
_cell_formula_units_Z   1
loop_
 _symmetry_equiv_pos_site_id
 _symmetry_equiv_pos_as_xyz
  1  'x, y, z'
loop_
 _atom_site_type_symbol
 _atom_site_label
 _atom_site_symmetry_multiplicity
 _atom_site_fract_x
 _atom_site_fract_y
 _atom_site_fract_z
 _atom_site_occupancy
  Hf  Hf0  1  0.00000000  0.00000000  0.87789000  1.0
  Hf  Hf1  1  0.50000000  0.25000000  0.95930000  1.0
  Hf  Hf2  1  0.50000000  0.75000000  0.95930000  1.0
  Hf  Hf3  1  0.00000000  0.50000000  0.87789000  1.0
  Hf  Hf4  1  0.99997000  0.49998000  0.03917000  1.0
  Hf  Hf5  1  0.49977000  0.74937000  0.12527000  1.0
  Hf  Hf6  1  0.49977000  0.25065000  0.12528000  1.0
  Hf  Hf7  1  0.00182000  0.00003000  0.04032000  1.0
  Al  Al8  1  0.00000000  0.75000000  0.95930000  1.0
  Al  Al9  1  0.50000000  0.00000000  0.87789000  1.0
  Al  Al10  1  0.00000000  0.25000000  0.95930000  1.0
  Al  Al11  1  0.50000000  0.50000000  0.87789000  1.0
  Al  Al12  1  0.99634000  0.25319000  0.11960000  1.0
  Al  Al13  1  0.49973000  0.50002000  0.04206000  1.0
  Al  Al14  1  0.99629000  0.74681000  0.11962000  1.0
  Al  Al15  1  0.49800000  0.00001000  0.04307000  1.0
  Ni  Ni16  1  0.25000000  0.00000000  0.95930000  1.0
  Ni  Ni17  1  0.75000000  0.50000000  0.95930000  1.0
  Ni  Ni18  1  0.75000000  0.00000000  0.95930000  1.0
  Ni  Ni19  1  0.25000000  0.50000000  0.95930000  1.0
  Ni  Ni20  1  0.75000000  0.75000000  0.87789000  1.0
  Ni  Ni21  1  0.25000000  0.25000000  0.87789000  1.0
  Ni  Ni22  1  0.25000000  0.75000000  0.87789000  1.0
  Ni  Ni23  1  0.75000000  0.25000000  0.87789000  1.0
  Ni  Ni24  1  0.24142000  0.50009000  0.11681000  1.0
  Ni  Ni25  1  0.76447000  0.99994000  0.11621000  1.0
  Ni  Ni26  1  0.75699000  0.50010000  0.11710000  1.0
  Ni  Ni27  1  0.23346000  0.99992000  0.12810000  1.0
  Ni  Ni28  1  0.73346000  0.24928000  0.04313000  1.0
  Ni  Ni29  1  0.26790000  0.75110000  0.04406000  1.0
  Ni  Ni30  1  0.26774000  0.24892000  0.04402000  1.0
  Ni  Ni31  1  0.73329000  0.75074000  0.04317000  1.0
  C  C32  1  0.31300000  0.99998000  0.19255000  1.0
  O  O33  1  0.34305000  0.99999000  0.23618000  1.0
