# generated using pymatgen
data_Mg8Zn8Ag16CO
_symmetry_space_group_name_H-M   'P 1'
_cell_length_a   9.29097000
_cell_length_b   6.56971000
_cell_length_c   26.96820000
_cell_angle_alpha   90.00000000
_cell_angle_beta   90.00000000
_cell_angle_gamma   90.00000000
_symmetry_Int_Tables_number   1
_chemical_formula_structural   Mg8Zn8Ag16CO
_chemical_formula_sum   'Mg8 Zn8 Ag16 C1 O1'
_cell_volume   1646.11138049
_cell_formula_units_Z   1
loop_
 _symmetry_equiv_pos_site_id
 _symmetry_equiv_pos_as_xyz
  1  'x, y, z'
loop_
 _atom_site_type_symbol
 _atom_site_label
 _atom_site_symmetry_multiplicity
 _atom_site_fract_x
 _atom_site_fract_y
 _atom_site_fract_z
 _atom_site_occupancy
  Mg  Mg0  1  0.00000000  0.00000000  0.12919000  1.0
  Mg  Mg1  1  0.25000000  0.50000000  0.04306000  1.0
  Mg  Mg2  1  0.75000000  0.50000000  0.04306000  1.0
  Mg  Mg3  1  0.50000000  0.00000000  0.12919000  1.0
  Mg  Mg4  1  0.50000000  0.00266000  0.95586000  1.0
  Mg  Mg5  1  0.74573000  0.50874000  0.86843000  1.0
  Mg  Mg6  1  0.25427000  0.50874000  0.86843000  1.0
  Mg  Mg7  1  0.00000000  0.00635000  0.95545000  1.0
  Zn  Zn8  1  0.75000000  0.00000000  0.04306000  1.0
  Zn  Zn9  1  0.00000000  0.50000000  0.12919000  1.0
  Zn  Zn10  1  0.25000000  0.00000000  0.04306000  1.0
  Zn  Zn11  1  0.50000000  0.50000000  0.12919000  1.0
  Zn  Zn12  1  0.25155000  0.99583000  0.87066000  1.0
  Zn  Zn13  1  0.50000000  0.50431000  0.95434000  1.0
  Zn  Zn14  1  0.74845000  0.99583000  0.87066000  1.0
  Zn  Zn15  1  0.00000000  0.49866000  0.95282000  1.0
  Ag  Ag16  1  0.00000000  0.25000000  0.04306000  1.0
  Ag  Ag17  1  0.50000000  0.75000000  0.04306000  1.0
  Ag  Ag18  1  0.00000000  0.75000000  0.04306000  1.0
  Ag  Ag19  1  0.50000000  0.25000000  0.04306000  1.0
  Ag  Ag20  1  0.75000000  0.75000000  0.12919000  1.0
  Ag  Ag21  1  0.25000000  0.25000000  0.12919000  1.0
  Ag  Ag22  1  0.75000000  0.25000000  0.12919000  1.0
  Ag  Ag23  1  0.25000000  0.75000000  0.12919000  1.0
  Ag  Ag24  1  0.50000000  0.24190000  0.86784000  1.0
  Ag  Ag25  1  0.00000000  0.76216000  0.86993000  1.0
  Ag  Ag26  1  0.50000000  0.76624000  0.86766000  1.0
  Ag  Ag27  1  0.00000000  0.23652000  0.86519000  1.0
  Ag  Ag28  1  0.24955000  0.74954000  0.95912000  1.0
  Ag  Ag29  1  0.75018000  0.25703000  0.95638000  1.0
  Ag  Ag30  1  0.24982000  0.25703000  0.95638000  1.0
  Ag  Ag31  1  0.75045000  0.74954000  0.95912000  1.0
  C  C32  1  0.00000000  0.26798000  0.77935000  1.0
  O  O33  1  0.00000000  0.23398000  0.73780000  1.0
