# generated using pymatgen
data_Mg8Zn8Ag16CO
_symmetry_space_group_name_H-M   Pm
_cell_length_a   6.56971000
_cell_length_b   9.29097000
_cell_length_c   26.96820000
_cell_angle_alpha   90.00000000
_cell_angle_beta   90.00000000
_cell_angle_gamma   90.00000000
_symmetry_Int_Tables_number   6
_chemical_formula_structural   Mg8Zn8Ag16CO
_chemical_formula_sum   'Mg8 Zn8 Ag16 C1 O1'
_cell_volume   1646.11138049
_cell_formula_units_Z   1
loop_
 _symmetry_equiv_pos_site_id
 _symmetry_equiv_pos_as_xyz
  1  'x, y, z'
  2  'x, -y, z'
loop_
 _atom_site_type_symbol
 _atom_site_label
 _atom_site_symmetry_multiplicity
 _atom_site_fract_x
 _atom_site_fract_y
 _atom_site_fract_z
 _atom_site_occupancy
  Mg  Mg0  2  0.50000000  0.25000000  0.95694000  1.0
  Mg  Mg1  2  0.50874000  0.25427000  0.13157000  1.0
  Mg  Mg2  1  0.00000000  0.00000000  0.87081000  1.0
  Mg  Mg3  1  0.00000000  0.50000000  0.87081000  1.0
  Mg  Mg4  1  0.00266000  0.50000000  0.04414000  1.0
  Mg  Mg5  1  0.00635000  0.00000000  0.04455000  1.0
  Zn  Zn6  2  0.00000000  0.25000000  0.95694000  1.0
  Zn  Zn7  2  0.99583000  0.25155000  0.12934000  1.0
  Zn  Zn8  1  0.49866000  0.00000000  0.04718000  1.0
  Zn  Zn9  1  0.50000000  0.00000000  0.87081000  1.0
  Zn  Zn10  1  0.50000000  0.50000000  0.87081000  1.0
  Zn  Zn11  1  0.50431000  0.50000000  0.04566000  1.0
  Ag  Ag12  2  0.25000000  0.25000000  0.87081000  1.0
  Ag  Ag13  2  0.25703000  0.24982000  0.04362000  1.0
  Ag  Ag14  2  0.74954000  0.24955000  0.04088000  1.0
  Ag  Ag15  2  0.75000000  0.25000000  0.87081000  1.0
  Ag  Ag16  1  0.23652000  0.00000000  0.13481000  1.0
  Ag  Ag17  1  0.24190000  0.50000000  0.13216000  1.0
  Ag  Ag18  1  0.25000000  0.00000000  0.95694000  1.0
  Ag  Ag19  1  0.25000000  0.50000000  0.95694000  1.0
  Ag  Ag20  1  0.75000000  0.00000000  0.95694000  1.0
  Ag  Ag21  1  0.75000000  0.50000000  0.95694000  1.0
  Ag  Ag22  1  0.76216000  0.00000000  0.13007000  1.0
  Ag  Ag23  1  0.76624000  0.50000000  0.13234000  1.0
  C  C24  1  0.26798000  0.00000000  0.22065000  1.0
  O  O25  1  0.23398000  0.00000000  0.26220000  1.0
