# generated using pymatgen
data_Fe12Pd4CO
_symmetry_space_group_name_H-M   Pmm2
_cell_length_a   5.32300000
_cell_length_b   7.52786000
_cell_length_c   23.99230000
_cell_angle_alpha   90.00000000
_cell_angle_beta   90.00000000
_cell_angle_gamma   90.00000000
_symmetry_Int_Tables_number   25
_chemical_formula_structural   Fe12Pd4CO
_chemical_formula_sum   'Fe12 Pd4 C1 O1'
_cell_volume   961.39062557
_cell_formula_units_Z   1
loop_
 _symmetry_equiv_pos_site_id
 _symmetry_equiv_pos_as_xyz
  1  'x, y, z'
  2  '-x, -y, z'
  3  '-x, y, z'
  4  'x, -y, z'
loop_
 _atom_site_type_symbol
 _atom_site_label
 _atom_site_symmetry_multiplicity
 _atom_site_fract_x
 _atom_site_fract_y
 _atom_site_fract_z
 _atom_site_occupancy
  Fe  Fe0  4  0.25000000  0.25000000  0.08320000  1.0
  Fe  Fe1  4  0.25000000  0.25000000  0.97227000  1.0
  Fe  Fe2  1  0.00000000  0.00000000  0.02773000  1.0
  Fe  Fe3  1  0.00000000  0.50000000  0.02773000  1.0
  Fe  Fe4  1  0.50000000  0.00000000  0.91680000  1.0
  Fe  Fe5  1  0.50000000  0.50000000  0.91680000  1.0
  Pd  Pd6  1  0.00000000  0.00000000  0.91680000  1.0
  Pd  Pd7  1  0.00000000  0.50000000  0.91680000  1.0
  Pd  Pd8  1  0.50000000  0.00000000  0.02773000  1.0
  Pd  Pd9  1  0.50000000  0.50000000  0.02773000  1.0
  C  C10  1  0.50000000  0.00000000  0.83761000  1.0
  O  O11  1  0.50000000  0.00000000  0.78968000  1.0
