# generated using pymatgen
data_Mn16Al16CO
_symmetry_space_group_name_H-M   Pmm2
_cell_length_a   5.89713000
_cell_length_b   8.33980000
_cell_length_c   26.25480000
_cell_angle_alpha   90.00000000
_cell_angle_beta   90.00000000
_cell_angle_gamma   90.00000000
_symmetry_Int_Tables_number   25
_chemical_formula_structural   Mn16Al16CO
_chemical_formula_sum   'Mn16 Al16 C1 O1'
_cell_volume   1291.23429356
_cell_formula_units_Z   1
loop_
 _symmetry_equiv_pos_site_id
 _symmetry_equiv_pos_as_xyz
  1  'x, y, z'
  2  '-x, -y, z'
  3  '-x, y, z'
  4  'x, -y, z'
loop_
 _atom_site_type_symbol
 _atom_site_label
 _atom_site_symmetry_multiplicity
 _atom_site_fract_x
 _atom_site_fract_y
 _atom_site_fract_z
 _atom_site_occupancy
  Mn  Mn0  2  0.00000000  0.25000000  0.88088000  1.0
  Mn  Mn1  2  0.00000000  0.25060000  0.04102000  1.0
  Mn  Mn2  2  0.50000000  0.24830000  0.04170000  1.0
  Mn  Mn3  2  0.50000000  0.25000000  0.88088000  1.0
  Mn  Mn4  1  0.00000000  0.00000000  0.11996000  1.0
  Mn  Mn5  1  0.00000000  0.00000000  0.96029000  1.0
  Mn  Mn6  1  0.00000000  0.50000000  0.11884000  1.0
  Mn  Mn7  1  0.00000000  0.50000000  0.96029000  1.0
  Mn  Mn8  1  0.50000000  0.00000000  0.11925000  1.0
  Mn  Mn9  1  0.50000000  0.00000000  0.96029000  1.0
  Mn  Mn10  1  0.50000000  0.50000000  0.12253000  1.0
  Mn  Mn11  1  0.50000000  0.50000000  0.96029000  1.0
  Al  Al12  4  0.24139000  0.24897000  0.12700000  1.0
  Al  Al13  4  0.25000000  0.25000000  0.96029000  1.0
  Al  Al14  2  0.24658000  0.00000000  0.04022000  1.0
  Al  Al15  2  0.25000000  0.00000000  0.88088000  1.0
  Al  Al16  2  0.25000000  0.50000000  0.88088000  1.0
  Al  Al17  2  0.25242000  0.50000000  0.04026000  1.0
  C  C18  1  0.00000000  0.00000000  0.18888000  1.0
  O  O19  1  0.00000000  0.00000000  0.23337000  1.0
