data_image0
_chemical_formula_structural       Sc8Cu8Ge8Pd8CO
_chemical_formula_sum              "Sc8 Cu8 Ge8 Pd8 C1 O1"
_cell_length_a       6.33395
_cell_length_b       8.95756
_cell_length_c       26.7182
_cell_angle_alpha    90
_cell_angle_beta     90
_cell_angle_gamma    90

_space_group_name_H-M_alt    "P 1"
_space_group_IT_number       1

loop_
  _space_group_symop_operation_xyz
  'x, y, z'

loop_
  _atom_site_type_symbol
  _atom_site_label
  _atom_site_symmetry_multiplicity
  _atom_site_fract_x
  _atom_site_fract_y
  _atom_site_fract_z
  _atom_site_occupancy
  Sc  Sc1       1.0  0.75000  0.00000  0.95809  1.0000
  Sc  Sc2       1.0  0.75000  0.50000  0.95809  1.0000
  Sc  Sc3       1.0  0.25000  0.25000  0.87428  1.0000
  Sc  Sc4       1.0  0.25000  0.75000  0.87428  1.0000
  Sc  Sc5       1.0  0.68949  0.50003  0.13193  1.0000
  Sc  Sc6       1.0  0.69791  0.99989  0.12981  1.0000
  Sc  Sc7       1.0  0.24503  0.74657  0.04537  1.0000
  Sc  Sc8       1.0  0.24485  0.25343  0.04540  1.0000
  Cu  Cu1       1.0  0.00000  0.00000  0.87428  1.0000
  Cu  Cu2       1.0  0.00000  0.50000  0.87428  1.0000
  Cu  Cu3       1.0  0.50000  0.75000  0.95809  1.0000
  Cu  Cu4       1.0  0.50000  0.25000  0.95809  1.0000
  Cu  Cu5       1.0  0.96205  0.50003  0.05154  1.0000
  Cu  Cu6       1.0  0.98156  0.99995  0.04801  1.0000
  Cu  Cu7       1.0  0.41073  0.24907  0.14396  1.0000
  Cu  Cu8       1.0  0.41056  0.75095  0.14400  1.0000
  Ge  Ge1       1.0  0.25000  0.00000  0.95809  1.0000
  Ge  Ge2       1.0  0.25000  0.50000  0.95809  1.0000
  Ge  Ge3       1.0  0.75000  0.25000  0.87428  1.0000
  Ge  Ge4       1.0  0.75000  0.75000  0.87428  1.0000
  Ge  Ge5       1.0  0.23291  0.49999  0.12523  1.0000
  Ge  Ge6       1.0  0.22913  0.00002  0.12478  1.0000
  Ge  Ge7       1.0  0.74308  0.75269  0.04159  1.0000
  Ge  Ge8       1.0  0.74303  0.24732  0.04161  1.0000
  Pd  Pd1       1.0  0.00000  0.25000  0.95809  1.0000
  Pd  Pd2       1.0  0.00000  0.75000  0.95809  1.0000
  Pd  Pd3       1.0  0.50000  0.50000  0.87428  1.0000
  Pd  Pd4       1.0  0.50000  0.00000  0.87428  1.0000
  Pd  Pd5       1.0  0.96723  0.74639  0.12422  1.0000
  Pd  Pd6       1.0  0.96732  0.25365  0.12425  1.0000
  Pd  Pd7       1.0  0.49160  0.00002  0.03962  1.0000
  Pd  Pd8       1.0  0.50391  0.50000  0.04096  1.0000
  C   C1        1.0  0.63312  0.00050  0.21451  1.0000
  O   O1        1.0  0.60710  0.00085  0.25701  1.0000
