# generated using pymatgen
data_Sc8Cu8Ge8Pd8CO
_symmetry_space_group_name_H-M   P1
_cell_length_a   6.33395000
_cell_length_b   8.95756000
_cell_length_c   26.71820000
_cell_angle_alpha   90.00000000
_cell_angle_beta   90.00000000
_cell_angle_gamma   90.00000000
_symmetry_Int_Tables_number   1
_chemical_formula_structural   Sc8Cu8Ge8Pd8CO
_chemical_formula_sum   'Sc8 Cu8 Ge8 Pd8 C1 O1'
_cell_volume   1515.90349084
_cell_formula_units_Z   1
loop_
 _symmetry_equiv_pos_site_id
 _symmetry_equiv_pos_as_xyz
  1  'x, y, z'
loop_
 _atom_site_type_symbol
 _atom_site_label
 _atom_site_symmetry_multiplicity
 _atom_site_fract_x
 _atom_site_fract_y
 _atom_site_fract_z
 _atom_site_occupancy
  Sc  Sc0  1  0.24470000  0.74696000  0.04525000  1.0
  Sc  Sc1  1  0.24495000  0.25293000  0.04517000  1.0
  Sc  Sc2  1  0.25000000  0.25000000  0.87428000  1.0
  Sc  Sc3  1  0.25000000  0.75000000  0.87428000  1.0
  Sc  Sc4  1  0.68947000  0.50009000  0.13175000  1.0
  Sc  Sc5  1  0.69469000  0.99978000  0.13086000  1.0
  Sc  Sc6  1  0.75000000  0.00000000  0.95809000  1.0
  Sc  Sc7  1  0.75000000  0.50000000  0.95809000  1.0
  Cu  Cu8  1  0.00000000  0.00000000  0.87428000  1.0
  Cu  Cu9  1  0.00000000  0.50000000  0.87428000  1.0
  Cu  Cu10  1  0.40891000  0.75162000  0.14389000  1.0
  Cu  Cu11  1  0.40972000  0.24815000  0.14378000  1.0
  Cu  Cu12  1  0.50000000  0.25000000  0.95809000  1.0
  Cu  Cu13  1  0.50000000  0.75000000  0.95809000  1.0
  Cu  Cu14  1  0.96215000  0.49989000  0.05133000  1.0
  Cu  Cu15  1  0.97841000  0.00008000  0.04789000  1.0
  Ge  Ge16  1  0.22506000  0.00002000  0.12400000  1.0
  Ge  Ge17  1  0.23165000  0.49982000  0.12508000  1.0
  Ge  Ge18  1  0.25000000  0.00000000  0.95809000  1.0
  Ge  Ge19  1  0.25000000  0.50000000  0.95809000  1.0
  Ge  Ge20  1  0.74246000  0.24790000  0.04157000  1.0
  Ge  Ge21  1  0.74247000  0.75208000  0.04158000  1.0
  Ge  Ge22  1  0.75000000  0.25000000  0.87428000  1.0
  Ge  Ge23  1  0.75000000  0.75000000  0.87428000  1.0
  Pd  Pd24  1  0.00000000  0.25000000  0.95809000  1.0
  Pd  Pd25  1  0.00000000  0.75000000  0.95809000  1.0
  Pd  Pd26  1  0.49320000  0.00000000  0.03955000  1.0
  Pd  Pd27  1  0.50000000  0.00000000  0.87428000  1.0
  Pd  Pd28  1  0.50000000  0.50000000  0.87428000  1.0
  Pd  Pd29  1  0.50308000  0.49998000  0.04063000  1.0
  Pd  Pd30  1  0.96526000  0.74647000  0.12404000  1.0
  Pd  Pd31  1  0.96528000  0.25337000  0.12401000  1.0
  C  C32  1  0.58408000  0.00347000  0.21221000  1.0
  O  O33  1  0.53266000  0.00407000  0.25355000  1.0
