# generated using pymatgen
data_LiYSnGe
_symmetry_space_group_name_H-M   Pm
_cell_length_a   6.35836000
_cell_length_b   4.30409000
_cell_length_c   24.74450000
_cell_angle_alpha   90.00000000
_cell_angle_beta   90.00000000
_cell_angle_gamma   90.00000000
_symmetry_Int_Tables_number   6
_chemical_formula_structural   LiYSnGe
_chemical_formula_sum   'Li2 Y2 Sn2 Ge2'
_cell_volume   677.18158564
_cell_formula_units_Z   2
loop_
 _symmetry_equiv_pos_site_id
 _symmetry_equiv_pos_as_xyz
  1  'x, y, z'
  2  'x, -y, z'
loop_
 _atom_site_type_symbol
 _atom_site_label
 _atom_site_symmetry_multiplicity
 _atom_site_fract_x
 _atom_site_fract_y
 _atom_site_fract_z
 _atom_site_occupancy
  Li  Li0  1  0.50000000  0.00000000  0.90413000  1.0
  Li  Li1  1  0.94237000  0.00000000  0.02848000  1.0
  Y  Y2  1  0.22483000  0.50000000  0.96804000  1.0
  Y  Y3  1  0.62530500  0.50000000  0.09471000  1.0
  Sn  Sn4  1  0.13482000  0.50000000  0.10662000  1.0
  Sn  Sn5  1  0.72483000  0.50000000  0.96804000  1.0
  Ge  Ge6  1  0.00000000  0.00000000  0.90413000  1.0
  Ge  Ge7  1  0.38070500  0.00000000  0.04623000  1.0
