# generated using pymatgen
data_Nb4Rh12CO
_symmetry_space_group_name_H-M   'P 1'
_cell_length_a   7.81819000
_cell_length_b   5.52830000
_cell_length_c   24.14620000
_cell_angle_alpha   90.00000000
_cell_angle_beta   90.00000000
_cell_angle_gamma   90.00000000
_symmetry_Int_Tables_number   1
_chemical_formula_structural   Nb4Rh12CO
_chemical_formula_sum   'Nb4 Rh12 C1 O1'
_cell_volume   1043.63014868
_cell_formula_units_Z   1
loop_
 _symmetry_equiv_pos_site_id
 _symmetry_equiv_pos_as_xyz
  1  'x, y, z'
loop_
 _atom_site_type_symbol
 _atom_site_label
 _atom_site_symmetry_multiplicity
 _atom_site_fract_x
 _atom_site_fract_y
 _atom_site_fract_z
 _atom_site_occupancy
  Nb  Nb0  1  0.99997000  0.00000000  0.92426000  1.0
  Nb  Nb1  1  0.00000000  0.50000000  0.02862000  1.0
  Nb  Nb2  1  0.50001000  0.00000000  0.92699000  1.0
  Nb  Nb3  1  0.50000000  0.50000000  0.02862000  1.0
  Rh  Rh4  1  0.00004000  0.50000000  0.91034000  1.0
  Rh  Rh5  1  0.24579000  0.75095000  0.96861000  1.0
  Rh  Rh6  1  0.24579000  0.24905000  0.96861000  1.0
  Rh  Rh7  1  0.00000000  0.00000000  0.02862000  1.0
  Rh  Rh8  1  0.25000000  0.25000000  0.08586000  1.0
  Rh  Rh9  1  0.25000000  0.75000000  0.08586000  1.0
  Rh  Rh10  1  0.49998000  0.50000000  0.92103000  1.0
  Rh  Rh11  1  0.75421000  0.75094000  0.96860000  1.0
  Rh  Rh12  1  0.75421000  0.24906000  0.96860000  1.0
  Rh  Rh13  1  0.50000000  0.00000000  0.02862000  1.0
  Rh  Rh14  1  0.75000000  0.25000000  0.08586000  1.0
  Rh  Rh15  1  0.75000000  0.75000000  0.08586000  1.0
  C  C16  1  0.99997000  0.50000000  0.83237000  1.0
  O  O17  1  0.99998000  0.50000000  0.78424000  1.0
