# generated using pymatgen
data_LiSiNi2
_symmetry_space_group_name_H-M   Pmm2
_cell_length_a   3.94462500
_cell_length_b   5.57854000
_cell_length_c   25.91690000
_cell_angle_alpha   90.00000000
_cell_angle_beta   90.00000000
_cell_angle_gamma   90.00000000
_symmetry_Int_Tables_number   25
_chemical_formula_structural   LiSiNi2
_chemical_formula_sum   'Li4 Si4 Ni8'
_cell_volume   570.30782090
_cell_formula_units_Z   4
loop_
 _symmetry_equiv_pos_site_id
 _symmetry_equiv_pos_as_xyz
  1  'x, y, z'
  2  '-x, -y, z'
  3  '-x, y, z'
  4  'x, -y, z'
loop_
 _atom_site_type_symbol
 _atom_site_label
 _atom_site_symmetry_multiplicity
 _atom_site_fract_x
 _atom_site_fract_y
 _atom_site_fract_z
 _atom_site_occupancy
  Li  Li0  1  0.00000000  0.00000000  0.11415000  1.0
  Li  Li1  1  0.00000000  0.00000000  0.96639000  1.0
  Li  Li2  1  0.50000000  0.50000000  0.03805000  1.0
  Li  Li3  1  0.50000000  0.50000000  0.86425000  1.0
  Si  Si4  1  0.00000000  0.50000000  0.11415000  1.0
  Si  Si5  1  0.00000000  0.50000000  0.96140000  1.0
  Si  Si6  1  0.50000000  0.00000000  0.03805000  1.0
  Si  Si7  1  0.50000000  0.00000000  0.88759500  1.0
  Ni  Ni8  2  0.00000000  0.22945000  0.89250000  1.0
  Ni  Ni9  2  0.00000000  0.25000000  0.03805000  1.0
  Ni  Ni10  2  0.50000000  0.25000000  0.11415000  1.0
  Ni  Ni11  2  0.50000000  0.25469500  0.96197000  1.0
