# generated using pymatgen
data_Li16In8Ir8C
_symmetry_space_group_name_H-M   'P 1'
_cell_length_a   8.97987000
_cell_length_b   6.34973000
_cell_length_c   26.73490000
_cell_angle_alpha   90.00000000
_cell_angle_beta   90.00000000
_cell_angle_gamma   90.00000000
_symmetry_Int_Tables_number   1
_chemical_formula_structural   Li16In8Ir8C
_chemical_formula_sum   'Li16 In8 Ir8 C1'
_cell_volume   1524.41731254
_cell_formula_units_Z   1
loop_
 _symmetry_equiv_pos_site_id
 _symmetry_equiv_pos_as_xyz
  1  'x, y, z'
loop_
 _atom_site_type_symbol
 _atom_site_label
 _atom_site_symmetry_multiplicity
 _atom_site_fract_x
 _atom_site_fract_y
 _atom_site_fract_z
 _atom_site_occupancy
  Li  Li0  1  0.75000000  0.00000000  0.04199000  1.0
  Li  Li1  1  0.00000000  0.50000000  0.12596000  1.0
  Li  Li2  1  0.25000000  0.00000000  0.04199000  1.0
  Li  Li3  1  0.50000000  0.50000000  0.12596000  1.0
  Li  Li4  1  0.00000000  0.25000000  0.04199000  1.0
  Li  Li5  1  0.50000000  0.25000000  0.04199000  1.0
  Li  Li6  1  0.75000000  0.75000000  0.12596000  1.0
  Li  Li7  1  0.25000000  0.75000000  0.12596000  1.0
  Li  Li8  1  0.23347000  0.97341000  0.87186000  1.0
  Li  Li9  1  0.50000000  0.49050000  0.95926000  1.0
  Li  Li10  1  0.76653000  0.97341000  0.87186000  1.0
  Li  Li11  1  0.00000000  0.55324000  0.93985000  1.0
  Li  Li12  1  0.50000000  0.26496000  0.86881000  1.0
  Li  Li13  1  0.00000000  0.24672000  0.86912000  1.0
  Li  Li14  1  0.25468000  0.74514000  0.95793000  1.0
  Li  Li15  1  0.74532000  0.74514000  0.95793000  1.0
  In  In16  1  0.25000000  0.25000000  0.12596000  1.0
  In  In17  1  0.75000000  0.25000000  0.12596000  1.0
  In  In18  1  0.50000000  0.75000000  0.04199000  1.0
  In  In19  1  0.00000000  0.75000000  0.04199000  1.0
  In  In20  1  0.75389000  0.25329000  0.95813000  1.0
  In  In21  1  0.24611000  0.25329000  0.95813000  1.0
  In  In22  1  0.00000000  0.63852000  0.82634000  1.0
  In  In23  1  0.50000000  0.73313000  0.87304000  1.0
  Ir  Ir24  1  0.00000000  0.00000000  0.12596000  1.0
  Ir  Ir25  1  0.25000000  0.50000000  0.04199000  1.0
  Ir  Ir26  1  0.75000000  0.50000000  0.04199000  1.0
  Ir  Ir27  1  0.50000000  0.00000000  0.12596000  1.0
  Ir  Ir28  1  0.50000000  0.00135000  0.95469000  1.0
  Ir  Ir29  1  0.75154000  0.50065000  0.87648000  1.0
  Ir  Ir30  1  0.24846000  0.50065000  0.87648000  1.0
  Ir  Ir31  1  0.00000000  0.98965000  0.95123000  1.0
  C  C32  1  0.00000000  0.91114000  0.88599000  1.0
