# generated using pymatgen
data_Li8Ga4Pd4C
_symmetry_space_group_name_H-M   'P 1'
_cell_length_a   6.14873000
_cell_length_b   6.14873000
_cell_length_c   24.61150000
_cell_angle_alpha   90.00000000
_cell_angle_beta   90.00000000
_cell_angle_gamma   90.00000000
_symmetry_Int_Tables_number   1
_chemical_formula_structural   Li8Ga4Pd4C
_chemical_formula_sum   'Li8 Ga4 Pd4 C1'
_cell_volume   930.48404220
_cell_formula_units_Z   1
loop_
 _symmetry_equiv_pos_site_id
 _symmetry_equiv_pos_as_xyz
  1  'x, y, z'
loop_
 _atom_site_type_symbol
 _atom_site_label
 _atom_site_symmetry_multiplicity
 _atom_site_fract_x
 _atom_site_fract_y
 _atom_site_fract_z
 _atom_site_occupancy
  Li  Li0  1  0.00000000  0.00000000  0.03123000  1
  Li  Li1  1  0.99959000  0.50066000  0.88041000  1
  Li  Li2  1  0.49934000  0.00041000  0.88041000  1
  Li  Li3  1  0.50000000  0.50000000  0.03123000  1
  Li  Li4  1  0.25000000  0.75000000  0.09369000  1
  Li  Li5  1  0.75034000  0.75040000  0.96242000  1
  Li  Li6  1  0.75000000  0.25000000  0.09369000  1
  Li  Li7  1  0.24960000  0.24966000  0.96242000  1
  Ga  Ga8  1  0.24979000  0.75021000  0.97300000  1
  Ga  Ga9  1  0.75000000  0.75000000  0.09369000  1
  Ga  Ga10  1  0.74973000  0.25027000  0.96203000  1
  Ga  Ga11  1  0.25000000  0.25000000  0.09369000  1
  Pd  Pd12  1  0.01553000  0.98447000  0.90618000  1
  Pd  Pd13  1  0.48297000  0.51703000  0.90603000  1
  Pd  Pd14  1  0.00000000  0.50000000  0.03123000  1
  Pd  Pd15  1  0.50000000  0.00000000  0.03123000  1
  C  C16  1  0.24895000  0.75105000  0.88982000  1
