# generated using pymatgen
data_Y8Pd16Pb8C
_symmetry_space_group_name_H-M   Pm
_cell_length_a   6.95998000
_cell_length_b   9.84289000
_cell_length_c   27.38220000
_cell_angle_alpha   90.00000000
_cell_angle_beta   90.00000000
_cell_angle_gamma   90.00000000
_symmetry_Int_Tables_number   6
_chemical_formula_structural   Y8Pd16Pb8C
_chemical_formula_sum   'Y8 Pd16 Pb8 C1'
_cell_volume   1875.85368820
_cell_formula_units_Z   1
loop_
 _symmetry_equiv_pos_site_id
 _symmetry_equiv_pos_as_xyz
  1  'x, y, z'
  2  'x, -y, z'
loop_
 _atom_site_type_symbol
 _atom_site_label
 _atom_site_symmetry_multiplicity
 _atom_site_fract_x
 _atom_site_fract_y
 _atom_site_fract_z
 _atom_site_occupancy
  Y  Y0  2  0.00000000  0.25000000  0.86520000  1.0
  Y  Y1  2  0.99378000  0.25367000  0.04486000  1.0
  Y  Y2  1  0.50000000  0.00000000  0.95507000  1.0
  Y  Y3  1  0.50000000  0.50000000  0.95507000  1.0
  Y  Y4  1  0.50524000  0.50000000  0.13337000  1.0
  Y  Y5  1  0.55040000  0.00000000  0.13409000  1.0
  Pd  Pd6  2  0.21062000  0.22296000  0.13010000  1.0
  Pd  Pd7  2  0.25000000  0.25000000  0.95507000  1.0
  Pd  Pd8  2  0.75000000  0.25000000  0.95507000  1.0
  Pd  Pd9  2  0.76928000  0.25962000  0.13131000  1.0
  Pd  Pd10  1  0.21535000  0.00000000  0.05508000  1.0
  Pd  Pd11  1  0.25000000  0.00000000  0.86520000  1.0
  Pd  Pd12  1  0.25000000  0.50000000  0.86520000  1.0
  Pd  Pd13  1  0.25762000  0.50000000  0.04879000  1.0
  Pd  Pd14  1  0.74611000  0.50000000  0.04898000  1.0
  Pd  Pd15  1  0.75000000  0.00000000  0.86520000  1.0
  Pd  Pd16  1  0.75000000  0.50000000  0.86520000  1.0
  Pd  Pd17  1  0.75529000  0.00000000  0.04206000  1.0
  Pb  Pb18  2  0.49379000  0.24519000  0.04715000  1.0
  Pb  Pb19  2  0.50000000  0.25000000  0.86520000  1.0
  Pb  Pb20  1  -0.00000000  0.50000000  0.95507000  1.0
  Pb  Pb21  1  -0.00000000  0.00000000  0.95507000  1.0
  Pb  Pb22  1  0.02366000  0.50000000  0.14305000  1.0
  Pb  Pb23  1  0.96812000  0.00000000  0.18364000  1.0
  C  C24  1  0.22838000  0.00000000  0.13473000  1.0
