# generated using pymatgen
data_Li8Mg8Ag8Sn8C
_symmetry_space_group_name_H-M   'P 1'
_cell_length_a   9.55866000
_cell_length_b   6.75899000
_cell_length_c   27.16900000
_cell_angle_alpha   90.00000000
_cell_angle_beta   90.00000000
_cell_angle_gamma   90.00000000
_symmetry_Int_Tables_number   1
_chemical_formula_structural   Li8Mg8Ag8Sn8C
_chemical_formula_sum   'Li8 Mg8 Ag8 Sn8 C1'
_cell_volume   1755.30452250
_cell_formula_units_Z   1
loop_
 _symmetry_equiv_pos_site_id
 _symmetry_equiv_pos_as_xyz
  1  'x, y, z'
loop_
 _atom_site_type_symbol
 _atom_site_label
 _atom_site_symmetry_multiplicity
 _atom_site_fract_x
 _atom_site_fract_y
 _atom_site_fract_z
 _atom_site_occupancy
  Li  Li0  1  0.75000000  0.75000000  0.04398000  1.0
  Li  Li1  1  0.25000000  0.75000000  0.04398000  1.0
  Li  Li2  1  0.00000000  0.25000000  0.13193000  1.0
  Li  Li3  1  0.50000000  0.25000000  0.13193000  1.0
  Li  Li4  1  0.27735000  0.74894000  0.86492000  1.0
  Li  Li5  1  0.72265000  0.74894000  0.86492000  1.0
  Li  Li6  1  0.50000000  0.23646000  0.95776000  1.0
  Li  Li7  1  0.00000000  0.24641000  0.94418000  1.0
  Mg  Mg8  1  0.75000000  0.25000000  0.04398000  1.0
  Mg  Mg9  1  0.25000000  0.25000000  0.04398000  1.0
  Mg  Mg10  1  0.00000000  0.75000000  0.13193000  1.0
  Mg  Mg11  1  0.50000000  0.75000000  0.13193000  1.0
  Mg  Mg12  1  0.22910000  0.25291000  0.85551000  1.0
  Mg  Mg13  1  0.77090000  0.25291000  0.85551000  1.0
  Mg  Mg14  1  0.50000000  0.76499000  0.95085000  1.0
  Mg  Mg15  1  0.00000000  0.74782000  0.95922000  1.0
  Ag  Ag16  1  0.75000000  0.00000000  0.13193000  1.0
  Ag  Ag17  1  0.25000000  0.00000000  0.13193000  1.0
  Ag  Ag18  1  0.50000000  0.50000000  0.04398000  1.0
  Ag  Ag19  1  0.00000000  0.50000000  0.04398000  1.0
  Ag  Ag20  1  0.24918000  0.01061000  0.94974000  1.0
  Ag  Ag21  1  0.75082000  0.01061000  0.94974000  1.0
  Ag  Ag22  1  0.00000000  0.54314000  0.86750000  1.0
  Ag  Ag23  1  0.50000000  0.46028000  0.87250000  1.0
  Sn  Sn24  1  0.00000000  0.00000000  0.04398000  1.0
  Sn  Sn25  1  0.50000000  0.00000000  0.04398000  1.0
  Sn  Sn26  1  0.25000000  0.50000000  0.13193000  1.0
  Sn  Sn27  1  0.75000000  0.50000000  0.13193000  1.0
  Sn  Sn28  1  0.50000000  0.02187000  0.85667000  1.0
  Sn  Sn29  1  0.00000000  0.94258000  0.85941000  1.0
  Sn  Sn30  1  0.74487000  0.49477000  0.95059000  1.0
  Sn  Sn31  1  0.25513000  0.49477000  0.95059000  1.0
  C  C32  1  0.00000000  0.24382000  0.84119000  1.0
