# generated using pymatgen
data_Ti16Be16CO
_symmetry_space_group_name_H-M   Pmm2
_cell_length_a   5.87849000
_cell_length_b   8.31345000
_cell_length_c   26.23510000
_cell_angle_alpha   90.00000000
_cell_angle_beta   90.00000000
_cell_angle_gamma   90.00000000
_symmetry_Int_Tables_number   25
_chemical_formula_structural   Ti16Be16CO
_chemical_formula_sum   'Ti16 Be16 C1 O1'
_cell_volume   1282.12331219
_cell_formula_units_Z   1
loop_
 _symmetry_equiv_pos_site_id
 _symmetry_equiv_pos_as_xyz
  1  'x, y, z'
  2  '-x, -y, z'
  3  '-x, y, z'
  4  'x, -y, z'
loop_
 _atom_site_type_symbol
 _atom_site_label
 _atom_site_symmetry_multiplicity
 _atom_site_fract_x
 _atom_site_fract_y
 _atom_site_fract_z
 _atom_site_occupancy
  Ti  Ti0  4  0.24660000  0.24751000  0.12369000  1.0
  Ti  Ti1  4  0.25000000  0.25000000  0.96039000  1.0
  Ti  Ti2  2  0.24770000  0.00000000  0.03709000  1.0
  Ti  Ti3  2  0.25000000  0.00000000  0.88117000  1.0
  Ti  Ti4  2  0.25000000  0.50000000  0.88117000  1.0
  Ti  Ti5  2  0.25221000  0.50000000  0.03852000  1.0
  Be  Be6  2  0.00000000  0.25000000  0.88117000  1.0
  Be  Be7  2  0.00000000  0.25243000  0.04374000  1.0
  Be  Be8  2  0.50000000  0.24787000  0.04488000  1.0
  Be  Be9  2  0.50000000  0.25000000  0.88117000  1.0
  Be  Be10  1  0.00000000  0.00000000  0.11241000  1.0
  Be  Be11  1  0.00000000  0.00000000  0.96039000  1.0
  Be  Be12  1  0.00000000  0.50000000  0.11358000  1.0
  Be  Be13  1  0.00000000  0.50000000  0.96039000  1.0
  Be  Be14  1  0.50000000  0.00000000  0.11168000  1.0
  Be  Be15  1  0.50000000  0.00000000  0.96039000  1.0
  Be  Be16  1  0.50000000  0.50000000  0.11463000  1.0
  Be  Be17  1  0.50000000  0.50000000  0.96039000  1.0
  C  C18  1  0.00000000  0.00000000  0.17412000  1.0
  O  O19  1  0.00000000  0.00000000  0.21958000  1.0
