# generated using pymatgen
data_Mn8Ni16Sn8C
_symmetry_space_group_name_H-M   'P 1'
_cell_length_a   8.63046000
_cell_length_b   6.10266000
_cell_length_c   26.47280000
_cell_angle_alpha   90.00000000
_cell_angle_beta   90.00000000
_cell_angle_gamma   90.00000000
_symmetry_Int_Tables_number   1
_chemical_formula_structural   Mn8Ni16Sn8C
_chemical_formula_sum   'Mn8 Ni16 Sn8 C1'
_cell_volume   1394.28962977
_cell_formula_units_Z   1
loop_
 _symmetry_equiv_pos_site_id
 _symmetry_equiv_pos_as_xyz
  1  'x, y, z'
loop_
 _atom_site_type_symbol
 _atom_site_label
 _atom_site_symmetry_multiplicity
 _atom_site_fract_x
 _atom_site_fract_y
 _atom_site_fract_z
 _atom_site_occupancy
  Mn  Mn0  1  0.75000000  0.00000000  0.12225000  1.0
  Mn  Mn1  1  0.00000000  0.50000000  0.04075000  1.0
  Mn  Mn2  1  0.50000000  0.50000000  0.04075000  1.0
  Mn  Mn3  1  0.25000000  0.00000000  0.12225000  1.0
  Mn  Mn4  1  0.25572000  0.99849000  0.96178000  1.0
  Mn  Mn5  1  0.50000000  0.50639000  0.87835000  1.0
  Mn  Mn6  1  0.00000000  0.53826000  0.88201000  1.0
  Mn  Mn7  1  0.74428000  0.99849000  0.96178000  1.0
  Ni  Ni8  1  0.75000000  0.25000000  0.04075000  1.0
  Ni  Ni9  1  0.25000000  0.75000000  0.04075000  1.0
  Ni  Ni10  1  0.75000000  0.75000000  0.04075000  1.0
  Ni  Ni11  1  0.25000000  0.25000000  0.04075000  1.0
  Ni  Ni12  1  0.50000000  0.75000000  0.12225000  1.0
  Ni  Ni13  1  0.00000000  0.25000000  0.12225000  1.0
  Ni  Ni14  1  0.50000000  0.25000000  0.12225000  1.0
  Ni  Ni15  1  0.00000000  0.75000000  0.12225000  1.0
  Ni  Ni16  1  0.22024000  0.21538000  0.88294000  1.0
  Ni  Ni17  1  0.75284000  0.77211000  0.88490000  1.0
  Ni  Ni18  1  0.24716000  0.77211000  0.88490000  1.0
  Ni  Ni19  1  0.77976000  0.21538000  0.88294000  1.0
  Ni  Ni20  1  0.00000000  0.77683000  0.95698000  1.0
  Ni  Ni21  1  0.50000000  0.25315000  0.95791000  1.0
  Ni  Ni22  1  0.00000000  0.21731000  0.95057000  1.0
  Ni  Ni23  1  0.50000000  0.75123000  0.95760000  1.0
  Sn  Sn24  1  0.50000000  1.00000000  0.04075000  1.0
  Sn  Sn25  1  0.75000000  0.50000000  0.12225000  1.0
  Sn  Sn26  1  0.00000000  1.00000000  0.04075000  1.0
  Sn  Sn27  1  0.25000000  0.50000000  0.12225000  1.0
  Sn  Sn28  1  0.00000000  0.92618000  0.83119000  1.0
  Sn  Sn29  1  0.24509000  0.49634000  0.95953000  1.0
  Sn  Sn30  1  0.50000000  0.01174000  0.87087000  1.0
  Sn  Sn31  1  0.75491000  0.49634000  0.95953000  1.0
  C  C32  1  0.00000000  0.23631000  0.87614000  1.0
