data_image0
_chemical_formula_structural       Li8Mg8Cu8Ge8C
_chemical_formula_sum              "Li8 Mg8 Cu8 Ge8 C1"
_cell_length_a       6.17522
_cell_length_b       8.73308
_cell_length_c       26.5498
_cell_angle_alpha    90
_cell_angle_beta     90
_cell_angle_gamma    90

_space_group_name_H-M_alt    "P 1"
_space_group_IT_number       1

loop_
  _space_group_symop_operation_xyz
  'x, y, z'

loop_
  _atom_site_type_symbol
  _atom_site_label
  _atom_site_symmetry_multiplicity
  _atom_site_fract_x
  _atom_site_fract_y
  _atom_site_fract_z
  _atom_site_occupancy
  Li  Li1       1.0  0.00000  0.25000  0.95888  1.0000
  Li  Li2       1.0  0.00000  0.75000  0.95888  1.0000
  Li  Li3       1.0  0.50000  0.50000  0.87665  1.0000
  Li  Li4       1.0  0.50000  0.00000  0.87665  1.0000
  Li  Li5       1.0  0.06505  0.76412  0.15510  1.0000
  Li  Li6       1.0  0.06511  0.23588  0.15510  1.0000
  Li  Li7       1.0  0.52862  1.00000  0.04479  1.0000
  Li  Li8       1.0  0.49582  0.49999  0.04343  1.0000
  Mg  Mg1       1.0  0.75000  0.00000  0.95888  1.0000
  Mg  Mg2       1.0  0.75000  0.50000  0.95888  1.0000
  Mg  Mg3       1.0  0.25000  0.25000  0.87665  1.0000
  Mg  Mg4       1.0  0.25000  0.75000  0.87665  1.0000
  Mg  Mg5       1.0  0.77987  0.49998  0.12702  1.0000
  Mg  Mg6       1.0  0.70552  0.00008  0.16349  1.0000
  Mg  Mg7       1.0  0.22337  0.76382  0.04543  1.0000
  Mg  Mg8       1.0  0.22336  0.23617  0.04543  1.0000
  Cu  Cu1       1.0  0.00000  0.00000  0.87665  1.0000
  Cu  Cu2       1.0  0.00000  0.50000  0.87665  1.0000
  Cu  Cu3       1.0  0.50000  0.75000  0.95888  1.0000
  Cu  Cu4       1.0  0.50000  0.25000  0.95888  1.0000
  Cu  Cu5       1.0  0.00932  0.50000  0.03740  1.0000
  Cu  Cu6       1.0  0.92873  0.99999  0.06606  1.0000
  Cu  Cu7       1.0  0.50091  0.26236  0.11844  1.0000
  Cu  Cu8       1.0  0.50093  0.73764  0.11844  1.0000
  Ge  Ge1       1.0  0.25000  0.00000  0.95888  1.0000
  Ge  Ge2       1.0  0.25000  0.50000  0.95888  1.0000
  Ge  Ge3       1.0  0.75000  0.25000  0.87665  1.0000
  Ge  Ge4       1.0  0.75000  0.75000  0.87665  1.0000
  Ge  Ge5       1.0  0.25080  0.50000  0.12460  1.0000
  Ge  Ge6       1.0  0.31506  0.99999  0.12593  1.0000
  Ge  Ge7       1.0  0.75594  0.74129  0.04438  1.0000
  Ge  Ge8       1.0  0.75593  0.25870  0.04438  1.0000
  C   C1        1.0  0.01982  0.00000  0.14212  1.0000
