# generated using pymatgen
data_Li8Mg8Cu8Ge8C
_symmetry_space_group_name_H-M   P1
_cell_length_a   6.17522000
_cell_length_b   8.73308000
_cell_length_c   26.54980000
_cell_angle_alpha   90.00000000
_cell_angle_beta   90.00000000
_cell_angle_gamma   90.00000000
_symmetry_Int_Tables_number   1
_chemical_formula_structural   Li8Mg8Cu8Ge8C
_chemical_formula_sum   'Li8 Mg8 Cu8 Ge8 C1'
_cell_volume   1431.79594113
_cell_formula_units_Z   1
loop_
 _symmetry_equiv_pos_site_id
 _symmetry_equiv_pos_as_xyz
  1  'x, y, z'
loop_
 _atom_site_type_symbol
 _atom_site_label
 _atom_site_symmetry_multiplicity
 _atom_site_fract_x
 _atom_site_fract_y
 _atom_site_fract_z
 _atom_site_occupancy
  Li  Li0  1  -0.00000000  0.25000000  0.95888000  1.0
  Li  Li1  1  -0.00000000  0.75000000  0.95888000  1.0
  Li  Li2  1  0.06505000  0.76412000  0.15510000  1.0
  Li  Li3  1  0.06511000  0.23588000  0.15510000  1.0
  Li  Li4  1  0.49582000  0.49999000  0.04343000  1.0
  Li  Li5  1  0.50000000  0.00000000  0.87665000  1.0
  Li  Li6  1  0.50000000  0.50000000  0.87665000  1.0
  Li  Li7  1  0.52862000  0.00000000  0.04479000  1.0
  Mg  Mg8  1  0.22336000  0.23617000  0.04543000  1.0
  Mg  Mg9  1  0.22337000  0.76382000  0.04543000  1.0
  Mg  Mg10  1  0.25000000  0.25000000  0.87665000  1.0
  Mg  Mg11  1  0.25000000  0.75000000  0.87665000  1.0
  Mg  Mg12  1  0.70552000  0.00008000  0.16349000  1.0
  Mg  Mg13  1  0.75000000  0.00000000  0.95888000  1.0
  Mg  Mg14  1  0.75000000  0.50000000  0.95888000  1.0
  Mg  Mg15  1  0.77987000  0.49998000  0.12702000  1.0
  Cu  Cu16  1  0.00000000  0.00000000  0.87665000  1.0
  Cu  Cu17  1  0.00000000  0.50000000  0.87665000  1.0
  Cu  Cu18  1  0.00932000  0.50000000  0.03740000  1.0
  Cu  Cu19  1  0.50000000  0.25000000  0.95888000  1.0
  Cu  Cu20  1  0.50000000  0.75000000  0.95888000  1.0
  Cu  Cu21  1  0.50091000  0.26236000  0.11844000  1.0
  Cu  Cu22  1  0.50093000  0.73764000  0.11844000  1.0
  Cu  Cu23  1  0.92873000  0.99999000  0.06606000  1.0
  Ge  Ge24  1  0.25000000  0.00000000  0.95888000  1.0
  Ge  Ge25  1  0.25000000  0.50000000  0.95888000  1.0
  Ge  Ge26  1  0.25080000  0.50000000  0.12460000  1.0
  Ge  Ge27  1  0.31506000  0.99999000  0.12593000  1.0
  Ge  Ge28  1  0.75000000  0.25000000  0.87665000  1.0
  Ge  Ge29  1  0.75000000  0.75000000  0.87665000  1.0
  Ge  Ge30  1  0.75593000  0.25870000  0.04438000  1.0
  Ge  Ge31  1  0.75594000  0.74129000  0.04438000  1.0
  C  C32  1  0.01982000  0.00000000  0.14212000  1.0
