# generated using pymatgen
data_Li8Ga16Ir8C
_symmetry_space_group_name_H-M   Pmm2
_cell_length_a   6.11439000
_cell_length_b   8.64705000
_cell_length_c   26.48530000
_cell_angle_alpha   90.00000000
_cell_angle_beta   90.00000000
_cell_angle_gamma   90.00000000
_symmetry_Int_Tables_number   25
_chemical_formula_structural   Li8Ga16Ir8C
_chemical_formula_sum   'Li8 Ga16 Ir8 C1'
_cell_volume   1400.31584520
_cell_formula_units_Z   1
loop_
 _symmetry_equiv_pos_site_id
 _symmetry_equiv_pos_as_xyz
  1  'x, y, z'
  2  '-x, -y, z'
  3  '-x, y, z'
  4  'x, -y, z'
loop_
 _atom_site_type_symbol
 _atom_site_label
 _atom_site_symmetry_multiplicity
 _atom_site_fract_x
 _atom_site_fract_y
 _atom_site_fract_z
 _atom_site_occupancy
  Li  Li0  2  0.50000000  0.24081000  0.13825000  1.0
  Li  Li1  2  0.50000000  0.25000000  0.95919000  1.0
  Li  Li2  1  0.00000000  0.00000000  0.04062000  1.0
  Li  Li3  1  0.00000000  0.00000000  0.87757000  1.0
  Li  Li4  1  0.00000000  0.50000000  0.03901000  1.0
  Li  Li5  1  0.00000000  0.50000000  0.87757000  1.0
  Ga  Ga6  4  0.25000000  0.25000000  0.87757000  1.0
  Ga  Ga7  4  0.25622000  0.24872000  0.04061000  1.0
  Ga  Ga8  2  0.21078000  0.00000000  0.12984000  1.0
  Ga  Ga9  2  0.23622000  0.50000000  0.12497000  1.0
  Ga  Ga10  2  0.25000000  0.00000000  0.95919000  1.0
  Ga  Ga11  2  0.25000000  0.50000000  0.95919000  1.0
  Ir  Ir12  2  0.00000000  0.25000000  0.95919000  1.0
  Ir  Ir13  2  0.00000000  0.25746000  0.11396000  1.0
  Ir  Ir14  1  0.50000000  0.00000000  0.03956000  1.0
  Ir  Ir15  1  0.50000000  0.00000000  0.87757000  1.0
  Ir  Ir16  1  0.50000000  0.50000000  0.03895000  1.0
  Ir  Ir17  1  0.50000000  0.50000000  0.87757000  1.0
  C  C18  1  0.50000000  0.00000000  0.15203000  1.0
