# generated using pymatgen
data_Li4Ga4Ge4Pd4C
_symmetry_space_group_name_H-M   'P 1'
_cell_length_a   6.27488000
_cell_length_b   6.27488000
_cell_length_c   24.70620000
_cell_angle_alpha   90.00000000
_cell_angle_beta   90.00000000
_cell_angle_gamma   90.00000000
_symmetry_Int_Tables_number   1
_chemical_formula_structural   Li4Ga4Ge4Pd4C
_chemical_formula_sum   'Li4 Ga4 Ge4 Pd4 C1'
_cell_volume   972.78485919
_cell_formula_units_Z   1
loop_
 _symmetry_equiv_pos_site_id
 _symmetry_equiv_pos_as_xyz
  1  'x, y, z'
loop_
 _atom_site_type_symbol
 _atom_site_label
 _atom_site_symmetry_multiplicity
 _atom_site_fract_x
 _atom_site_fract_y
 _atom_site_fract_z
 _atom_site_occupancy
  Li  Li0  1  0.75000000  0.25000000  0.03175000  1.0
  Li  Li1  1  0.75757000  0.74044000  0.88923000  1.0
  Li  Li2  1  0.24243000  0.25956000  0.88923000  1.0
  Li  Li3  1  0.25000000  0.75000000  0.03175000  1.0
  Ga  Ga4  1  0.00000000  0.00000000  0.09524000  1.0
  Ga  Ga5  1  0.00000000  0.50000000  0.97865000  1.0
  Ga  Ga6  1  0.50000000  0.00000000  0.96142000  1.0
  Ga  Ga7  1  0.50000000  0.50000000  0.09524000  1.0
  Ge  Ge8  1  0.00000000  0.50000000  0.09524000  1.0
  Ge  Ge9  1  0.00000000  0.00000000  0.96650000  1.0
  Ge  Ge10  1  0.50000000  0.50000000  0.96655000  1.0
  Ge  Ge11  1  0.50000000  0.00000000  0.09524000  1.0
  Pd  Pd12  1  0.25000000  0.25000000  0.03175000  1.0
  Pd  Pd13  1  0.22761000  0.72757000  0.91362000  1.0
  Pd  Pd14  1  0.77239000  0.27243000  0.91362000  1.0
  Pd  Pd15  1  0.75000000  0.75000000  0.03175000  1.0
  C  C16  1  0.00000000  0.50000000  0.89317000  1.0
