data_image0
_chemical_formula_structural       Nb8Al8Ru16CO
_chemical_formula_sum              "Nb8 Al8 Ru16 C1 O1"
_cell_length_a       6.19479
_cell_length_b       8.76076
_cell_length_c       26.5706
_cell_angle_alpha    90
_cell_angle_beta     90
_cell_angle_gamma    90

_space_group_name_H-M_alt    "P 1"
_space_group_IT_number       1

loop_
  _space_group_symop_operation_xyz
  'x, y, z'

loop_
  _atom_site_type_symbol
  _atom_site_label
  _atom_site_symmetry_multiplicity
  _atom_site_fract_x
  _atom_site_fract_y
  _atom_site_fract_z
  _atom_site_occupancy
  Nb  Nb1       1.0  0.00000  0.00000  0.87636  1.0000
  Nb  Nb2       1.0  0.50000  0.25000  0.95879  1.0000
  Nb  Nb3       1.0  0.50000  0.75000  0.95879  1.0000
  Nb  Nb4       1.0  0.00000  0.50000  0.87636  1.0000
  Nb  Nb5       1.0  1.00000  0.49914  0.04284  1.0000
  Nb  Nb6       1.0  0.50000  0.75000  0.12307  1.0000
  Nb  Nb7       1.0  0.50000  0.25000  0.12309  1.0000
  Nb  Nb8       1.0  0.00000  0.00086  0.04284  1.0000
  Al  Al1       1.0  0.00000  0.75000  0.95879  1.0000
  Al  Al2       1.0  0.50000  0.00000  0.87636  1.0000
  Al  Al3       1.0  0.00000  0.25000  0.95879  1.0000
  Al  Al4       1.0  0.50000  0.50000  0.87636  1.0000
  Al  Al5       1.0  1.00000  0.25000  0.13384  1.0000
  Al  Al6       1.0  0.50000  0.50004  0.04175  1.0000
  Al  Al7       1.0  1.00000  0.75000  0.12559  1.0000
  Al  Al8       1.0  0.50000  0.99996  0.04175  1.0000
  Ru  Ru1       1.0  0.25000  0.00000  0.95879  1.0000
  Ru  Ru2       1.0  0.75000  0.50000  0.95879  1.0000
  Ru  Ru3       1.0  0.75000  0.00000  0.95879  1.0000
  Ru  Ru4       1.0  0.25000  0.50000  0.95879  1.0000
  Ru  Ru5       1.0  0.75000  0.75000  0.87636  1.0000
  Ru  Ru6       1.0  0.25000  0.25000  0.87636  1.0000
  Ru  Ru7       1.0  0.25000  0.75000  0.87636  1.0000
  Ru  Ru8       1.0  0.75000  0.25000  0.87636  1.0000
  Ru  Ru9       1.0  0.24607  0.49960  0.11940  1.0000
  Ru  Ru10      1.0  0.75393  0.00040  0.11940  1.0000
  Ru  Ru11      1.0  0.75393  0.49960  0.11940  1.0000
  Ru  Ru12      1.0  0.24607  0.00040  0.11940  1.0000
  Ru  Ru13      1.0  0.74862  0.25000  0.04198  1.0000
  Ru  Ru14      1.0  0.25279  0.75000  0.04139  1.0000
  Ru  Ru15      1.0  0.25138  0.25000  0.04198  1.0000
  Ru  Ru16      1.0  0.74721  0.75000  0.04139  1.0000
  C   C1        1.0  1.00000  0.24999  0.21240  1.0000
  O   O1        1.0  1.00000  0.24999  0.25568  1.0000
