# generated using pymatgen
data_Nb8Al8Ru16CO
_symmetry_space_group_name_H-M   'P 1'
_cell_length_a   6.19479000
_cell_length_b   8.76076000
_cell_length_c   26.57060000
_cell_angle_alpha   90.00000000
_cell_angle_beta   90.00000000
_cell_angle_gamma   90.00000000
_symmetry_Int_Tables_number   1
_chemical_formula_structural   Nb8Al8Ru16CO
_chemical_formula_sum   'Nb8 Al8 Ru16 C1 O1'
_cell_volume   1442.01485110
_cell_formula_units_Z   1
loop_
 _symmetry_equiv_pos_site_id
 _symmetry_equiv_pos_as_xyz
  1  'x, y, z'
loop_
 _atom_site_type_symbol
 _atom_site_label
 _atom_site_symmetry_multiplicity
 _atom_site_fract_x
 _atom_site_fract_y
 _atom_site_fract_z
 _atom_site_occupancy
  Nb  Nb0  1  0.00000000  0.75001000  0.87636000  1.0
  Nb  Nb1  1  0.50000000  0.00000000  0.95879000  1.0
  Nb  Nb2  1  0.50000000  0.50000000  0.95879000  1.0
  Nb  Nb3  1  0.00000000  0.24999000  0.87636000  1.0
  Nb  Nb4  1  0.00000000  0.24915000  0.04284000  1.0
  Nb  Nb5  1  0.50000000  0.50000000  0.12307000  1.0
  Nb  Nb6  1  0.50000000  0.00000000  0.12309000  1.0
  Nb  Nb7  1  0.00000000  0.75085000  0.04284000  1.0
  Al  Al8  1  0.00000000  0.50000000  0.95879000  1.0
  Al  Al9  1  0.50000000  0.75001000  0.87636000  1.0
  Al  Al10  1  0.00000000  0.00000000  0.95879000  1.0
  Al  Al11  1  0.50000000  0.24999000  0.87636000  1.0
  Al  Al12  1  0.00000000  0.00000000  0.13384000  1.0
  Al  Al13  1  0.50000000  0.25005000  0.04175000  1.0
  Al  Al14  1  0.00000000  0.50000000  0.12559000  1.0
  Al  Al15  1  0.50000000  0.74995000  0.04175000  1.0
  Ru  Ru16  1  0.25000000  0.75001000  0.95879000  1.0
  Ru  Ru17  1  0.75000000  0.24999000  0.95879000  1.0
  Ru  Ru18  1  0.75000000  0.75001000  0.95879000  1.0
  Ru  Ru19  1  0.25000000  0.24999000  0.95879000  1.0
  Ru  Ru20  1  0.75000000  0.50000000  0.87636000  1.0
  Ru  Ru21  1  0.25000000  0.00000000  0.87636000  1.0
  Ru  Ru22  1  0.25000000  0.50000000  0.87636000  1.0
  Ru  Ru23  1  0.75000000  0.00000000  0.87636000  1.0
  Ru  Ru24  1  0.24607000  0.24961000  0.11940000  1.0
  Ru  Ru25  1  0.75393000  0.75039000  0.11940000  1.0
  Ru  Ru26  1  0.75393000  0.24961000  0.11940000  1.0
  Ru  Ru27  1  0.24607000  0.75039000  0.11940000  1.0
  Ru  Ru28  1  0.74862000  0.00000000  0.04198000  1.0
  Ru  Ru29  1  0.25279000  0.50000000  0.04139000  1.0
  Ru  Ru30  1  0.25138000  0.00000000  0.04198000  1.0
  Ru  Ru31  1  0.74721000  0.50000000  0.04139000  1.0
  C  C32  1  0.00000000  0.00000000  0.21240000  1.0
  O  O33  1  0.00000000  0.00000000  0.25568000  1.0
