# generated using pymatgen
data_LiAlGePd
_symmetry_space_group_name_H-M   Pm
_cell_length_a   5.69495000
_cell_length_b   3.71473000
_cell_length_c   24.27100000
_cell_angle_alpha   90.00000000
_cell_angle_beta   90.00000000
_cell_angle_gamma   90.00000000
_symmetry_Int_Tables_number   6
_chemical_formula_structural   LiAlGePd
_chemical_formula_sum   'Li2 Al2 Ge2 Pd2'
_cell_volume   513.45789836
_cell_formula_units_Z   2
loop_
 _symmetry_equiv_pos_site_id
 _symmetry_equiv_pos_as_xyz
  1  'x, y, z'
  2  'x, -y, z'
loop_
 _atom_site_type_symbol
 _atom_site_label
 _atom_site_symmetry_multiplicity
 _atom_site_fract_x
 _atom_site_fract_y
 _atom_site_fract_z
 _atom_site_occupancy
  Li  Li0  1  0.00528000  0.00000000  0.02933000  1.0
  Li  Li1  1  0.48914500  0.00000000  0.90510000  1.0
  Al  Al2  1  0.50528000  0.00000000  0.02933000  1.0
  Al  Al3  1  0.97763500  0.00000000  0.91700000  1.0
  Ge  Ge4  1  0.25205000  0.50000000  0.96486500  1.0
  Ge  Ge5  1  0.75791000  0.50000000  0.08799000  1.0
  Pd  Pd6  1  0.25791000  0.50000000  0.08799000  1.0
  Pd  Pd7  1  0.73873500  0.50000000  0.96802000  1.0
