# generated using pymatgen
data_Mg8Rh8CO
_symmetry_space_group_name_H-M   'P 1'
_cell_length_a   6.29180000
_cell_length_b   6.29180000
_cell_length_c   24.71880000
_cell_angle_alpha   90.00000000
_cell_angle_beta   90.00000000
_cell_angle_gamma   90.00000000
_symmetry_Int_Tables_number   1
_chemical_formula_structural   Mg8Rh8CO
_chemical_formula_sum   'Mg8 Rh8 C1 O1'
_cell_volume   978.53688768
_cell_formula_units_Z   1
loop_
 _symmetry_equiv_pos_site_id
 _symmetry_equiv_pos_as_xyz
  1  'x, y, z'
loop_
 _atom_site_type_symbol
 _atom_site_label
 _atom_site_symmetry_multiplicity
 _atom_site_fract_x
 _atom_site_fract_y
 _atom_site_fract_z
 _atom_site_occupancy
  Mg  Mg0  1  0.00000000  0.00000000  0.94852000  1.0
  Mg  Mg1  1  0.00000000  0.00000000  0.07579000  1.0
  Mg  Mg2  1  0.00000000  0.50000000  0.94852000  1.0
  Mg  Mg3  1  0.00000000  0.50000000  0.07579000  1.0
  Mg  Mg4  1  0.50000000  0.00000000  0.94852000  1.0
  Mg  Mg5  1  0.50000000  0.00000000  0.07579000  1.0
  Mg  Mg6  1  0.50000000  0.50000000  0.94852000  1.0
  Mg  Mg7  1  0.50000000  0.50000000  0.07579000  1.0
  Rh  Rh8  1  0.75000000  0.75000000  0.88489000  1.0
  Rh  Rh9  1  0.75000000  0.75000000  0.01216000  1.0
  Rh  Rh10  1  0.75000000  0.25000000  0.88489000  1.0
  Rh  Rh11  1  0.75000000  0.25000000  0.01216000  1.0
  Rh  Rh12  1  0.25000000  0.75000000  0.88489000  1.0
  Rh  Rh13  1  0.25000000  0.75000000  0.01216000  1.0
  Rh  Rh14  1  0.25000000  0.25000000  0.88489000  1.0
  Rh  Rh15  1  0.25000000  0.25000000  0.01216000  1.0
  C  C16  1  0.00000000  0.00000000  0.15266000  1.0
  O  O17  1  0.00000000  0.00000000  0.19918000  1.0
