# generated using pymatgen
data_Y8In8Ge8Pd8CO
_symmetry_space_group_name_H-M   'P 1'
_cell_length_a   9.45024000
_cell_length_b   7.93684000
_cell_length_c   26.65400000
_cell_angle_alpha   90.00000000
_cell_angle_beta   90.00000000
_cell_angle_gamma   90.00000000
_symmetry_Int_Tables_number   1
_chemical_formula_structural   Y8In8Ge8Pd8CO
_chemical_formula_sum   'Y8 In8 Ge8 Pd8 C1 O1'
_cell_volume   1999.18441190
_cell_formula_units_Z   1
loop_
 _symmetry_equiv_pos_site_id
 _symmetry_equiv_pos_as_xyz
  1  'x, y, z'
loop_
 _atom_site_type_symbol
 _atom_site_label
 _atom_site_symmetry_multiplicity
 _atom_site_fract_x
 _atom_site_fract_y
 _atom_site_fract_z
 _atom_site_occupancy
  Y  Y0  1  0.00000000  0.25772000  0.95944000  1.0
  Y  Y1  1  0.00000000  0.25000000  0.12482000  1.0
  Y  Y2  1  0.00000000  0.74228000  0.95944000  1.0
  Y  Y3  1  0.00000000  0.75000000  0.12482000  1.0
  Y  Y4  1  0.50000000  0.24801000  0.95934000  1.0
  Y  Y5  1  0.50000000  0.25000000  0.12482000  1.0
  Y  Y6  1  0.50000000  0.75199000  0.95934000  1.0
  Y  Y7  1  0.50000000  0.75000000  0.12482000  1.0
  In  In8  1  0.25308000  0.27531000  0.86849000  1.0
  In  In9  1  0.25000000  0.25000000  0.04161000  1.0
  In  In10  1  0.25308000  0.72469000  0.86849000  1.0
  In  In11  1  0.25000000  0.75000000  0.04161000  1.0
  In  In12  1  0.74694000  0.27531000  0.86849000  1.0
  In  In13  1  0.75000000  0.25000000  0.04161000  1.0
  In  In14  1  0.74694000  0.72469000  0.86849000  1.0
  In  In15  1  0.75000000  0.75000000  0.04161000  1.0
  Ge  Ge16  1  0.00000000  0.00000000  0.88424000  1.0
  Ge  Ge17  1  0.00000000  0.00000000  0.04161000  1.0
  Ge  Ge18  1  0.00003000  0.50000000  0.86853000  1.0
  Ge  Ge19  1  0.00000000  0.50000000  0.04161000  1.0
  Ge  Ge20  1  0.50004000  0.00000000  0.87067000  1.0
  Ge  Ge21  1  0.50000000  0.00000000  0.04161000  1.0
  Ge  Ge22  1  0.50001000  0.50000000  0.87038000  1.0
  Ge  Ge23  1  0.50000000  0.50000000  0.04161000  1.0
  Pd  Pd24  1  0.25236000  0.00000000  0.94356000  1.0
  Pd  Pd25  1  0.25000000  0.00000000  0.12482000  1.0
  Pd  Pd26  1  0.25251000  0.50000000  0.95867000  1.0
  Pd  Pd27  1  0.25000000  0.50000000  0.12482000  1.0
  Pd  Pd28  1  0.74766000  0.00000000  0.94355000  1.0
  Pd  Pd29  1  0.75000000  0.00000000  0.12482000  1.0
  Pd  Pd30  1  0.74748000  0.50000000  0.95867000  1.0
  Pd  Pd31  1  0.75000000  0.50000000  0.12482000  1.0
  C  C32  1  0.99995000  0.00000000  0.81203000  1.0
  O  O33  1  0.99999000  0.00000000  0.76848000  1.0
