# generated using pymatgen
data_V4Pd12CO
_symmetry_space_group_name_H-M   'P 1'
_cell_length_a   7.84123000
_cell_length_b   5.54458000
_cell_length_c   24.15840000
_cell_angle_alpha   90.00000000
_cell_angle_beta   90.00000000
_cell_angle_gamma   90.00000000
_symmetry_Int_Tables_number   1
_chemical_formula_structural   V4Pd12CO
_chemical_formula_sum   'V4 Pd12 C1 O1'
_cell_volume   1050.31849900
_cell_formula_units_Z   1
loop_
 _symmetry_equiv_pos_site_id
 _symmetry_equiv_pos_as_xyz
  1  'x, y, z'
loop_
 _atom_site_type_symbol
 _atom_site_label
 _atom_site_symmetry_multiplicity
 _atom_site_fract_x
 _atom_site_fract_y
 _atom_site_fract_z
 _atom_site_occupancy
  V  V0  1  0.75000000  0.00000000  0.91393000  1.0
  V  V1  1  0.75648000  0.49549000  0.02811000  1.0
  V  V2  1  0.25000000  0.00000000  0.91393000  1.0
  V  V3  1  0.24352000  0.49549000  0.02811000  1.0
  Pd  Pd4  1  0.75000000  0.50000000  0.91393000  1.0
  Pd  Pd5  1  0.50000000  0.25000000  0.97131000  1.0
  Pd  Pd6  1  0.50000000  0.75000000  0.97131000  1.0
  Pd  Pd7  1  0.74991000  0.00016000  0.02478000  1.0
  Pd  Pd8  1  0.50000000  0.75988000  0.08597000  1.0
  Pd  Pd9  1  0.50000000  0.27499000  0.08301000  1.0
  Pd  Pd10  1  0.25000000  0.50000000  0.91393000  1.0
  Pd  Pd11  1  0.00000000  0.25000000  0.97131000  1.0
  Pd  Pd12  1  0.00000000  0.75000000  0.97131000  1.0
  Pd  Pd13  1  0.25009000  0.00016000  0.02478000  1.0
  Pd  Pd14  1  0.00000000  0.73501000  0.08402000  1.0
  Pd  Pd15  1  0.00000000  0.25524000  0.08469000  1.0
  C  C16  1  0.50000000  0.74601000  0.16551000  1.0
  O  O17  1  0.50000000  0.74348000  0.21308000  1.0
