# generated using pymatgen
data_Nb4Ir12C
_symmetry_space_group_name_H-M   'P 1'
_cell_length_a   5.56590000
_cell_length_b   7.87138000
_cell_length_c   24.17440000
_cell_angle_alpha   90.00000000
_cell_angle_beta   90.00000000
_cell_angle_gamma   90.00000000
_symmetry_Int_Tables_number   1
_chemical_formula_structural   Nb4Ir12C
_chemical_formula_sum   'Nb4 Ir12 C1'
_cell_volume   1059.11222776
_cell_formula_units_Z   1
loop_
 _symmetry_equiv_pos_site_id
 _symmetry_equiv_pos_as_xyz
  1  'x, y, z'
loop_
 _atom_site_type_symbol
 _atom_site_label
 _atom_site_symmetry_multiplicity
 _atom_site_fract_x
 _atom_site_fract_y
 _atom_site_fract_z
 _atom_site_occupancy
  Nb  Nb0  1  0.00000000  0.00000000  0.08634000  1.0
  Nb  Nb1  1  0.50000000  0.00000000  0.98058000  1.0
  Nb  Nb2  1  0.00000000  0.50000000  0.08634000  1.0
  Nb  Nb3  1  0.50000000  0.50000000  0.95873000  1.0
  Ir  Ir4  1  0.50000000  0.00000000  0.08634000  1.0
  Ir  Ir5  1  0.75000000  0.24999000  0.02878000  1.0
  Ir  Ir6  1  0.25000000  0.24999000  0.02878000  1.0
  Ir  Ir7  1  0.00000000  0.00000000  0.97969000  1.0
  Ir  Ir8  1  0.25574000  0.21169000  0.91503000  1.0
  Ir  Ir9  1  0.74426000  0.21169000  0.91503000  1.0
  Ir  Ir10  1  0.50000000  0.50000000  0.08634000  1.0
  Ir  Ir11  1  0.75000000  0.75001000  0.02878000  1.0
  Ir  Ir12  1  0.25000000  0.75001000  0.02878000  1.0
  Ir  Ir13  1  0.00000000  0.50000000  0.97268000  1.0
  Ir  Ir14  1  0.25574000  0.78831000  0.91503000  1.0
  Ir  Ir15  1  0.74426000  0.78831000  0.91503000  1.0
  C  C16  1  0.50000000  0.00000000  0.88875000  1.0
