# generated using pymatgen
data_Li8Hf8Ge8Pd8CO
_symmetry_space_group_name_H-M   'P 1'
_cell_length_a   6.42607000
_cell_length_b   9.08784000
_cell_length_c   26.81590000
_cell_angle_alpha   90.00000000
_cell_angle_beta   90.00000000
_cell_angle_gamma   90.00000000
_symmetry_Int_Tables_number   1
_chemical_formula_structural   Li8Hf8Ge8Pd8CO
_chemical_formula_sum   'Li8 Hf8 Ge8 Pd8 C1 O1'
_cell_volume   1566.02431813
_cell_formula_units_Z   1
loop_
 _symmetry_equiv_pos_site_id
 _symmetry_equiv_pos_as_xyz
  1  'x, y, z'
loop_
 _atom_site_type_symbol
 _atom_site_label
 _atom_site_symmetry_multiplicity
 _atom_site_fract_x
 _atom_site_fract_y
 _atom_site_fract_z
 _atom_site_occupancy
  Li  Li0  1  0.25000000  0.00000000  0.95764000  1.0
  Li  Li1  1  0.25000000  0.50000000  0.95764000  1.0
  Li  Li2  1  0.75000000  0.25000000  0.87291000  1.0
  Li  Li3  1  0.75000000  0.75000000  0.87291000  1.0
  Li  Li4  1  0.20487000  0.51953000  0.13928000  1.0
  Li  Li5  1  0.20493000  0.98064000  0.13928000  1.0
  Li  Li6  1  0.72995000  0.74974000  0.03935000  1.0
  Li  Li7  1  0.75072000  0.25006000  0.03916000  1.0
  Hf  Hf8  1  0.75000000  0.00000000  0.95764000  1.0
  Hf  Hf9  1  0.75000000  0.50000000  0.95764000  1.0
  Hf  Hf10  1  0.25000000  0.25000000  0.87291000  1.0
  Hf  Hf11  1  0.25000000  0.75000000  0.87291000  1.0
  Hf  Hf12  1  0.66855000  0.47268000  0.12309000  1.0
  Hf  Hf13  1  0.66852000  0.02765000  0.12332000  1.0
  Hf  Hf14  1  0.22951000  0.75022000  0.04775000  1.0
  Hf  Hf15  1  0.26775000  0.24966000  0.04843000  1.0
  Ge  Ge16  1  0.00000000  0.00000000  0.87291000  1.0
  Ge  Ge17  1  0.00000000  0.50000000  0.87291000  1.0
  Ge  Ge18  1  0.50000000  0.75000000  0.95764000  1.0
  Ge  Ge19  1  0.50000000  0.25000000  0.95764000  1.0
  Ge  Ge20  1  0.98458000  0.49222000  0.05084000  1.0
  Ge  Ge21  1  0.98349000  0.00776000  0.05093000  1.0
  Ge  Ge22  1  0.40524000  0.25018000  0.14634000  1.0
  Ge  Ge23  1  0.49466000  0.75015000  0.13348000  1.0
  Pd  Pd24  1  0.00000000  0.25000000  0.95764000  1.0
  Pd  Pd25  1  0.00000000  0.75000000  0.95764000  1.0
  Pd  Pd26  1  0.50000000  0.50000000  0.87291000  1.0
  Pd  Pd27  1  0.50000000  0.00000000  0.87291000  1.0
  Pd  Pd28  1  0.91509000  0.75009000  0.11888000  1.0
  Pd  Pd29  1  0.98895000  0.25007000  0.12701000  1.0
  Pd  Pd30  1  0.48460000  0.98944000  0.03647000  1.0
  Pd  Pd31  1  0.48341000  0.51028000  0.03636000  1.0
  C  C32  1  0.89124000  0.25001000  0.19635000  1.0
  O  O33  1  0.87828000  0.25003000  0.23948000  1.0
