# generated using pymatgen
data_Zr8Ni16Sn8CO
_symmetry_space_group_name_H-M   Pmm2
_cell_length_a   6.34024000
_cell_length_b   8.96645000
_cell_length_c   26.72480000
_cell_angle_alpha   90.00000000
_cell_angle_beta   90.00000000
_cell_angle_gamma   90.00000000
_symmetry_Int_Tables_number   25
_chemical_formula_structural   Zr8Ni16Sn8CO
_chemical_formula_sum   'Zr8 Ni16 Sn8 C1 O1'
_cell_volume   1519.29004635
_cell_formula_units_Z   1
loop_
 _symmetry_equiv_pos_site_id
 _symmetry_equiv_pos_as_xyz
  1  'x, y, z'
  2  '-x, -y, z'
  3  '-x, y, z'
  4  'x, -y, z'
loop_
 _atom_site_type_symbol
 _atom_site_label
 _atom_site_symmetry_multiplicity
 _atom_site_fract_x
 _atom_site_fract_y
 _atom_site_fract_z
 _atom_site_occupancy
  Zr  Zr0  2  0.00000000  0.24805000  0.04211000  1.0
  Zr  Zr1  2  0.00000000  0.24997000  0.87418000  1.0
  Zr  Zr2  1  0.50000000  0.00000000  0.12671000  1.0
  Zr  Zr3  1  0.50000000  0.00000000  0.95806000  1.0
  Zr  Zr4  1  0.50000000  0.50000000  0.12630000  1.0
  Zr  Zr5  1  0.50000000  0.50000000  0.95806000  1.0
  Ni  Ni6  4  0.24999000  0.24997000  0.95806000  1.0
  Ni  Ni7  4  0.25904000  0.25014000  0.12023000  1.0
  Ni  Ni8  2  0.24355000  0.50000000  0.04604000  1.0
  Ni  Ni9  2  0.24999000  0.00000000  0.87418000  1.0
  Ni  Ni10  2  0.25001000  0.50000000  0.87418000  1.0
  Ni  Ni11  2  0.26087000  0.00000000  0.04517000  1.0
  Sn  Sn12  2  0.50000000  0.24997000  0.87418000  1.0
  Sn  Sn13  2  0.50000000  0.25282000  0.04029000  1.0
  Sn  Sn14  1  0.00000000  0.00000000  0.13105000  1.0
  Sn  Sn15  1  0.00000000  0.00000000  0.95806000  1.0
  Sn  Sn16  1  0.00000000  0.50000000  0.13328000  1.0
  Sn  Sn17  1  0.00000000  0.50000000  0.95806000  1.0
  C  C18  1  0.00000000  0.00000000  0.28693000  1.0
  O  O19  1  0.00000000  0.00000000  0.32940000  1.0
