data_image0
_chemical_formula_structural       Sc8In8Ga8Pd8C
_chemical_formula_sum              "Sc8 In8 Ga8 Pd8 C1"
_cell_length_a       6.68246
_cell_length_b       9.45042
_cell_length_c       27.0878
_cell_angle_alpha    90
_cell_angle_beta     90
_cell_angle_gamma    90

_space_group_name_H-M_alt    "P 1"
_space_group_IT_number       1

loop_
  _space_group_symop_operation_xyz
  'x, y, z'

loop_
  _atom_site_type_symbol
  _atom_site_label
  _atom_site_symmetry_multiplicity
  _atom_site_fract_x
  _atom_site_fract_y
  _atom_site_fract_z
  _atom_site_occupancy
  Sc  Sc1       1.0  0.75000  0.00000  0.95639  1.0000
  Sc  Sc2       1.0  0.75000  0.50000  0.95639  1.0000
  Sc  Sc3       1.0  0.25000  0.25000  0.86917  1.0000
  Sc  Sc4       1.0  0.25000  0.75000  0.86917  1.0000
  Sc  Sc5       1.0  0.71534  0.50000  0.12890  1.0000
  Sc  Sc6       1.0  0.79336  0.00000  0.12069  1.0000
  Sc  Sc7       1.0  0.24704  0.73900  0.04879  1.0000
  Sc  Sc8       1.0  0.24706  0.26100  0.04879  1.0000
  In  In1       1.0  0.25000  0.00000  0.95639  1.0000
  In  In2       1.0  0.25000  0.50000  0.95639  1.0000
  In  In3       1.0  0.75000  0.25000  0.86917  1.0000
  In  In4       1.0  0.75000  0.75000  0.86917  1.0000
  In  In5       1.0  0.24576  0.50000  0.13696  1.0000
  In  In6       1.0  0.17920  0.99999  0.16255  1.0000
  In  In7       1.0  0.73418  0.75937  0.04345  1.0000
  In  In8       1.0  0.73417  0.24063  0.04345  1.0000
  Ga  Ga1       1.0  0.00000  0.00000  0.86917  1.0000
  Ga  Ga2       1.0  0.00000  0.50000  0.86917  1.0000
  Ga  Ga3       1.0  0.50000  0.75000  0.95639  1.0000
  Ga  Ga4       1.0  0.50000  0.25000  0.95639  1.0000
  Ga  Ga5       1.0  0.97989  0.50000  0.04522  1.0000
  Ga  Ga6       1.0  0.02878  0.00000  0.03924  1.0000
  Ga  Ga7       1.0  0.54463  0.22297  0.15171  1.0000
  Ga  Ga8       1.0  0.54465  0.77703  0.15171  1.0000
  Pd  Pd1       1.0  0.00000  0.25000  0.95639  1.0000
  Pd  Pd2       1.0  0.00000  0.75000  0.95639  1.0000
  Pd  Pd3       1.0  0.50000  0.50000  0.86917  1.0000
  Pd  Pd4       1.0  0.50000  0.00000  0.86917  1.0000
  Pd  Pd5       1.0  0.97398  0.73164  0.12841  1.0000
  Pd  Pd6       1.0  0.97399  0.26836  0.12841  1.0000
  Pd  Pd7       1.0  0.44209  1.00000  0.06048  1.0000
  Pd  Pd8       1.0  0.49990  0.50000  0.04290  1.0000
  C   C1        1.0  0.49819  1.00000  0.14617  1.0000
