# generated using pymatgen
data_Li4Ge4Pd8CO
_symmetry_space_group_name_H-M   'P 1'
_cell_length_a   6.13924000
_cell_length_b   6.13924000
_cell_length_c   24.60440000
_cell_angle_alpha   90.00000000
_cell_angle_beta   90.00000000
_cell_angle_gamma   90.00000000
_symmetry_Int_Tables_number   1
_chemical_formula_structural   Li4Ge4Pd8CO
_chemical_formula_sum   'Li4 Ge4 Pd8 C1 O1'
_cell_volume   927.34642451
_cell_formula_units_Z   1
loop_
 _symmetry_equiv_pos_site_id
 _symmetry_equiv_pos_as_xyz
  1  'x, y, z'
loop_
 _atom_site_type_symbol
 _atom_site_label
 _atom_site_symmetry_multiplicity
 _atom_site_fract_x
 _atom_site_fract_y
 _atom_site_fract_z
 _atom_site_occupancy
  Li  Li0  1  0.00000000  0.00000000  0.09357000  1.0
  Li  Li1  1  0.50000000  0.50000000  0.09357000  1.0
  Li  Li2  1  0.50000000  0.00000000  0.96881000  1.0
  Li  Li3  1  0.00000000  0.50000000  0.96881000  1.0
  Ge  Ge4  1  0.00000000  0.00000000  0.96881000  1.0
  Ge  Ge5  1  0.50000000  0.00000000  0.09357000  1.0
  Ge  Ge6  1  0.00000000  0.50000000  0.09357000  1.0
  Ge  Ge7  1  0.50000000  0.50000000  0.96881000  1.0
  Pd  Pd8  1  0.25000000  0.25000000  0.03119000  1.0
  Pd  Pd9  1  0.75000000  0.75000000  0.90643000  1.0
  Pd  Pd10  1  0.75000000  0.25000000  0.03119000  1.0
  Pd  Pd11  1  0.25000000  0.75000000  0.90643000  1.0
  Pd  Pd12  1  0.75000000  0.75000000  0.03119000  1.0
  Pd  Pd13  1  0.25000000  0.25000000  0.90643000  1.0
  Pd  Pd14  1  0.25000000  0.75000000  0.03119000  1.0
  Pd  Pd15  1  0.75000000  0.25000000  0.90643000  1.0
  C  C16  1  0.00000000  0.00000000  0.17079000  1.0
  O  O17  1  0.00000000  0.00000000  0.21753000  1.0
