# generated using pymatgen
data_Li8Sc8In8Ag8CO
_symmetry_space_group_name_H-M   P1
_cell_length_a   6.68683000
_cell_length_b   9.45660000
_cell_length_c   27.09240000
_cell_angle_alpha   90.00000000
_cell_angle_beta   90.00000000
_cell_angle_gamma   90.00000000
_symmetry_Int_Tables_number   1
_chemical_formula_structural   Li8Sc8In8Ag8CO
_chemical_formula_sum   'Li8 Sc8 In8 Ag8 C1 O1'
_cell_volume   1713.17915172
_cell_formula_units_Z   1
loop_
 _symmetry_equiv_pos_site_id
 _symmetry_equiv_pos_as_xyz
  1  'x, y, z'
loop_
 _atom_site_type_symbol
 _atom_site_label
 _atom_site_symmetry_multiplicity
 _atom_site_fract_x
 _atom_site_fract_y
 _atom_site_fract_z
 _atom_site_occupancy
  Li  Li0  1  0.00000000  0.25000000  0.95637000  1.0
  Li  Li1  1  0.00000000  0.75000000  0.95637000  1.0
  Li  Li2  1  0.05690000  0.23957000  0.17502000  1.0
  Li  Li3  1  0.05691000  0.76042000  0.17503000  1.0
  Li  Li4  1  0.49795000  0.50000000  0.04706000  1.0
  Li  Li5  1  0.49959000  0.00000000  0.04432000  1.0
  Li  Li6  1  0.50000000  0.00000000  0.86911000  1.0
  Li  Li7  1  0.50000000  0.50000000  0.86911000  1.0
  Sc  Sc8  1  0.24003000  0.25016000  0.05249000  1.0
  Sc  Sc9  1  0.24005000  0.74979000  0.05250000  1.0
  Sc  Sc10  1  0.25000000  0.25000000  0.86911000  1.0
  Sc  Sc11  1  0.25000000  0.75000000  0.86911000  1.0
  Sc  Sc12  1  0.75000000  0.00000000  0.95637000  1.0
  Sc  Sc13  1  0.75000000  0.50000000  0.95637000  1.0
  Sc  Sc14  1  0.77391000  0.99998000  0.12885000  1.0
  Sc  Sc15  1  0.77883000  0.49999000  0.12995000  1.0
  In  In16  1  0.24152000  0.49999000  0.13688000  1.0
  In  In17  1  0.25000000  0.00000000  0.95637000  1.0
  In  In18  1  0.25000000  0.50000000  0.95637000  1.0
  In  In19  1  0.25539000  0.00000000  0.13170000  1.0
  In  In20  1  0.74982000  0.74960000  0.04534000  1.0
  In  In21  1  0.74983000  0.25038000  0.04533000  1.0
  In  In22  1  0.75000000  0.25000000  0.86911000  1.0
  In  In23  1  0.75000000  0.75000000  0.86911000  1.0
  Ag  Ag24  1  0.00000000  0.00000000  0.86911000  1.0
  Ag  Ag25  1  0.00000000  0.50000000  0.86911000  1.0
  Ag  Ag26  1  0.00224000  0.00000000  0.04033000  1.0
  Ag  Ag27  1  0.00228000  0.49999000  0.04200000  1.0
  Ag  Ag28  1  0.50000000  0.25000000  0.95637000  1.0
  Ag  Ag29  1  0.50000000  0.75000000  0.95637000  1.0
  Ag  Ag30  1  0.51153000  0.74695000  0.13592000  1.0
  Ag  Ag31  1  0.51169000  0.25298000  0.13586000  1.0
  C  C32  1  0.84066000  0.00000000  0.20887000  1.0
  O  O33  1  0.86113000  0.00001000  0.25183000  1.0
