data_image0
_chemical_formula_structural       Y8Ga8Sn8Pd8CO
_chemical_formula_sum              "Y8 Ga8 Sn8 Pd8 C1 O1"
_cell_length_a       8.5455
_cell_length_b       8.82498
_cell_length_c       26.6625
_cell_angle_alpha    90
_cell_angle_beta     90
_cell_angle_gamma    90

_space_group_name_H-M_alt    "P 1"
_space_group_IT_number       1

loop_
  _space_group_symop_operation_xyz
  'x, y, z'

loop_
  _atom_site_type_symbol
  _atom_site_label
  _atom_site_symmetry_multiplicity
  _atom_site_fract_x
  _atom_site_fract_y
  _atom_site_fract_z
  _atom_site_occupancy
  Y   Y1        1.0  0.25000  0.00000  0.95835  1.0000
  Y   Y2        1.0  0.26016  0.99345  0.12875  1.0000
  Y   Y3        1.0  0.25000  0.50000  0.95835  1.0000
  Y   Y4        1.0  0.26013  0.50657  0.12874  1.0000
  Y   Y5        1.0  0.75000  0.00000  0.95835  1.0000
  Y   Y6        1.0  0.73984  0.99344  0.12874  1.0000
  Y   Y7        1.0  0.75000  0.50000  0.95835  1.0000
  Y   Y8        1.0  0.73988  0.50656  0.12875  1.0000
  Ga  Ga1       1.0  0.00000  0.00000  0.87506  1.0000
  Ga  Ga2       1.0  0.00001  0.96321  0.04197  1.0000
  Ga  Ga3       1.0  0.00000  0.50000  0.87506  1.0000
  Ga  Ga4       1.0  0.99999  0.53683  0.04196  1.0000
  Ga  Ga5       1.0  0.50000  0.00000  0.87506  1.0000
  Ga  Ga6       1.0  0.49998  0.03957  0.03973  1.0000
  Ga  Ga7       1.0  0.50000  0.50000  0.87506  1.0000
  Ga  Ga8       1.0  0.50002  0.46046  0.03973  1.0000
  Sn  Sn1       1.0  0.25000  0.25000  0.87506  1.0000
  Sn  Sn2       1.0  0.20695  0.25001  0.04352  1.0000
  Sn  Sn3       1.0  0.25000  0.75000  0.87506  1.0000
  Sn  Sn4       1.0  0.28691  0.75002  0.04206  1.0000
  Sn  Sn5       1.0  0.75000  0.25000  0.87506  1.0000
  Sn  Sn6       1.0  0.79305  0.25001  0.04352  1.0000
  Sn  Sn7       1.0  0.75000  0.75000  0.87506  1.0000
  Sn  Sn8       1.0  0.71309  0.75000  0.04206  1.0000
  Pd  Pd1       1.0  0.00000  0.25000  0.95835  1.0000
  Pd  Pd2       1.0  0.00000  0.24989  0.12977  1.0000
  Pd  Pd3       1.0  0.00000  0.75000  0.95835  1.0000
  Pd  Pd4       1.0  1.00000  0.75000  0.11333  1.0000
  Pd  Pd5       1.0  0.50000  0.25000  0.95835  1.0000
  Pd  Pd6       1.0  0.50000  0.25001  0.11190  1.0000
  Pd  Pd7       1.0  0.50000  0.75000  0.95835  1.0000
  Pd  Pd8       1.0  0.50000  0.75000  0.12520  1.0000
  C   C1        1.0  0.99996  0.24959  0.20130  1.0000
  O   O1        1.0  0.99996  0.24965  0.24497  1.0000
