# generated using pymatgen
data_Zr8Ni16Sb8CO
_symmetry_space_group_name_H-M   'P 1'
_cell_length_a   6.34847000
_cell_length_b   8.97809000
_cell_length_c   26.73360000
_cell_angle_alpha   90.00000000
_cell_angle_beta   90.00000000
_cell_angle_gamma   90.00000000
_symmetry_Int_Tables_number   1
_chemical_formula_structural   Zr8Ni16Sb8CO
_chemical_formula_sum   'Zr8 Ni16 Sb8 C1 O1'
_cell_volume   1523.73860883
_cell_formula_units_Z   1
loop_
 _symmetry_equiv_pos_site_id
 _symmetry_equiv_pos_as_xyz
  1  'x, y, z'
loop_
 _atom_site_type_symbol
 _atom_site_label
 _atom_site_symmetry_multiplicity
 _atom_site_fract_x
 _atom_site_fract_y
 _atom_site_fract_z
 _atom_site_occupancy
  Zr  Zr0  1  0.00000000  0.75000000  0.87406000  1.0
  Zr  Zr1  1  0.50000000  0.00000000  0.95802000  1.0
  Zr  Zr2  1  0.50000000  0.50000000  0.95802000  1.0
  Zr  Zr3  1  0.00000000  0.25000000  0.87406000  1.0
  Zr  Zr4  1  0.00000000  0.25029000  0.04207000  1.0
  Zr  Zr5  1  0.50000000  0.50000000  0.12555000  1.0
  Zr  Zr6  1  0.50000000  0.00000000  0.12491000  1.0
  Zr  Zr7  1  0.00000000  0.74971000  0.04207000  1.0
  Ni  Ni8  1  0.25000000  0.75000000  0.95802000  1.0
  Ni  Ni9  1  0.75000000  0.25000000  0.95802000  1.0
  Ni  Ni10  1  0.75000000  0.75000000  0.95802000  1.0
  Ni  Ni11  1  0.25000000  0.25000000  0.95802000  1.0
  Ni  Ni12  1  0.75000000  0.50000000  0.87406000  1.0
  Ni  Ni13  1  0.25000000  0.00000000  0.87406000  1.0
  Ni  Ni14  1  0.25000000  0.50000000  0.87406000  1.0
  Ni  Ni15  1  0.75000000  0.00000000  0.87406000  1.0
  Ni  Ni16  1  0.27153000  0.25032000  0.11833000  1.0
  Ni  Ni17  1  0.72847000  0.74968000  0.11833000  1.0
  Ni  Ni18  1  0.72847000  0.25032000  0.11833000  1.0
  Ni  Ni19  1  0.27153000  0.74968000  0.11833000  1.0
  Ni  Ni20  1  0.76000000  0.00000000  0.04583000  1.0
  Ni  Ni21  1  0.23953000  0.50000000  0.04675000  1.0
  Ni  Ni22  1  0.24000000  0.00000000  0.04583000  1.0
  Ni  Ni23  1  0.76047000  0.50000000  0.04675000  1.0
  Sb  Sb24  1  0.00000000  0.50000000  0.95802000  1.0
  Sb  Sb25  1  0.50000000  0.75000000  0.87406000  1.0
  Sb  Sb26  1  0.00000000  0.00000000  0.95802000  1.0
  Sb  Sb27  1  0.50000000  0.25000000  0.87406000  1.0
  Sb  Sb28  1  0.00000000  0.00000000  0.13295000  1.0
  Sb  Sb29  1  0.50000000  0.25018000  0.03892000  1.0
  Sb  Sb30  1  0.00000000  0.50000000  0.13394000  1.0
  Sb  Sb31  1  0.50000000  0.74982000  0.03892000  1.0
  C  C32  1  0.00000000  0.00000000  0.28066000  1.0
  O  O33  1  0.00000000  0.00000000  0.32313000  1.0
