# generated using pymatgen
data_Be16Pd16CO
_symmetry_space_group_name_H-M   'P 1'
_cell_length_a   5.70199000
_cell_length_b   8.06383000
_cell_length_c   26.04790000
_cell_angle_alpha   90.00000000
_cell_angle_beta   90.00000000
_cell_angle_gamma   90.00000000
_symmetry_Int_Tables_number   1
_chemical_formula_structural   Be16Pd16CO
_chemical_formula_sum   'Be16 Pd16 C1 O1'
_cell_volume   1197.67926472
_cell_formula_units_Z   1
loop_
 _symmetry_equiv_pos_site_id
 _symmetry_equiv_pos_as_xyz
  1  'x, y, z'
loop_
 _atom_site_type_symbol
 _atom_site_label
 _atom_site_symmetry_multiplicity
 _atom_site_fract_x
 _atom_site_fract_y
 _atom_site_fract_z
 _atom_site_occupancy
  Be  Be0  1  0.00000000  0.75000000  0.88391000  1.0
  Be  Be1  1  0.00000000  0.00000000  0.96130000  1.0
  Be  Be2  1  0.00000000  0.75079000  0.04140000  1.0
  Be  Be3  1  0.00000000  0.00000000  0.11814000  1.0
  Be  Be4  1  0.00000000  0.25000000  0.88391000  1.0
  Be  Be5  1  0.00000000  0.50000000  0.96130000  1.0
  Be  Be6  1  0.00000000  0.24921000  0.04140000  1.0
  Be  Be7  1  0.00000000  0.50000000  0.11131000  1.0
  Be  Be8  1  0.50000000  0.75000000  0.88391000  1.0
  Be  Be9  1  0.50000000  0.00000000  0.96130000  1.0
  Be  Be10  1  0.50000000  0.75173000  0.04129000  1.0
  Be  Be11  1  0.50000000  0.00000000  0.11027000  1.0
  Be  Be12  1  0.50000000  0.25000000  0.88391000  1.0
  Be  Be13  1  0.50000000  0.50000000  0.96130000  1.0
  Be  Be14  1  0.50000000  0.24827000  0.04129000  1.0
  Be  Be15  1  0.50000000  0.50000000  0.11209000  1.0
  Pd  Pd16  1  0.25000000  0.00000000  0.88391000  1.0
  Pd  Pd17  1  0.25000000  0.75000000  0.96130000  1.0
  Pd  Pd18  1  0.24803000  0.00000000  0.03841000  1.0
  Pd  Pd19  1  0.24996000  0.74392000  0.11529000  1.0
  Pd  Pd20  1  0.25000000  0.50000000  0.88391000  1.0
  Pd  Pd21  1  0.25000000  0.25000000  0.96130000  1.0
  Pd  Pd22  1  0.25065000  0.50000000  0.03659000  1.0
  Pd  Pd23  1  0.24996000  0.25608000  0.11529000  1.0
  Pd  Pd24  1  0.75000000  0.00000000  0.88391000  1.0
  Pd  Pd25  1  0.75000000  0.75000000  0.96130000  1.0
  Pd  Pd26  1  0.75197000  0.00000000  0.03841000  1.0
  Pd  Pd27  1  0.75004000  0.74392000  0.11529000  1.0
  Pd  Pd28  1  0.75000000  0.50000000  0.88391000  1.0
  Pd  Pd29  1  0.75000000  0.25000000  0.96130000  1.0
  Pd  Pd30  1  0.74935000  0.50000000  0.03659000  1.0
  Pd  Pd31  1  0.75004000  0.25608000  0.11529000  1.0
  C  C32  1  0.00000000  0.00000000  0.18301000  1.0
  O  O33  1  0.00000000  0.00000000  0.22739000  1.0
