# generated using pymatgen
data_Li16Cu8Sb8CO
_symmetry_space_group_name_H-M   'P 1'
_cell_length_a   9.01500000
_cell_length_b   6.37457000
_cell_length_c   26.76130000
_cell_angle_alpha   90.00000000
_cell_angle_beta   90.00000000
_cell_angle_gamma   90.00000000
_symmetry_Int_Tables_number   1
_chemical_formula_structural   Li16Cu8Sb8CO
_chemical_formula_sum   'Li16 Cu8 Sb8 C1 O1'
_cell_volume   1537.88489797
_cell_formula_units_Z   1
loop_
 _symmetry_equiv_pos_site_id
 _symmetry_equiv_pos_as_xyz
  1  'x, y, z'
loop_
 _atom_site_type_symbol
 _atom_site_label
 _atom_site_symmetry_multiplicity
 _atom_site_fract_x
 _atom_site_fract_y
 _atom_site_fract_z
 _atom_site_occupancy
  Li  Li0  1  0.50000000  1.00000000  0.04211000  1.0
  Li  Li1  1  0.75000000  0.50000000  0.12633000  1.0
  Li  Li2  1  0.00000000  1.00000000  0.04211000  1.0
  Li  Li3  1  0.25000000  0.50000000  0.12633000  1.0
  Li  Li4  1  0.75000000  0.25000000  0.04211000  1.0
  Li  Li5  1  0.25000000  0.25000000  0.04211000  1.0
  Li  Li6  1  0.50000000  0.75000000  0.12633000  1.0
  Li  Li7  1  0.00000000  0.75000000  0.12633000  1.0
  Li  Li8  1  0.00000000  0.97210000  0.86418000  1.0
  Li  Li9  1  0.24975000  0.50342000  0.95826000  1.0
  Li  Li10  1  0.50000000  0.96468000  0.86636000  1.0
  Li  Li11  1  0.75025000  0.50342000  0.95826000  1.0
  Li  Li12  1  0.25015000  0.27099000  0.87738000  1.0
  Li  Li13  1  0.74985000  0.27099000  0.87738000  1.0
  Li  Li14  1  0.00000000  0.76750000  0.95992000  1.0
  Li  Li15  1  0.50000000  0.76396000  0.96049000  1.0
  Cu  Cu16  1  0.75000000  0.00000000  0.12633000  1.0
  Cu  Cu17  1  0.00000000  0.50000000  0.04211000  1.0
  Cu  Cu18  1  0.50000000  0.50000000  0.04211000  1.0
  Cu  Cu19  1  0.25000000  0.00000000  0.12633000  1.0
  Cu  Cu20  1  0.24985000  0.99275000  0.95538000  1.0
  Cu  Cu21  1  0.50000000  0.52709000  0.88495000  1.0
  Cu  Cu22  1  0.00000000  0.53511000  0.88454000  1.0
  Cu  Cu23  1  0.75015000  0.99275000  0.95538000  1.0
  Sb  Sb24  1  0.00000000  0.25000000  0.12633000  1.0
  Sb  Sb25  1  0.50000000  0.25000000  0.12633000  1.0
  Sb  Sb26  1  0.25000000  0.75000000  0.04211000  1.0
  Sb  Sb27  1  0.75000000  0.75000000  0.04211000  1.0
  Sb  Sb28  1  0.50000000  0.23588000  0.95437000  1.0
  Sb  Sb29  1  0.00000000  0.23777000  0.95395000  1.0
  Sb  Sb30  1  0.74834000  0.73593000  0.86971000  1.0
  Sb  Sb31  1  0.25166000  0.73593000  0.86971000  1.0
  C  C32  1  0.00000000  0.03821000  0.78655000  1.0
  O  O33  1  0.00000000  0.03786000  0.74398000  1.0
