# generated using pymatgen
data_Nb8Ni16Sn8CO
_symmetry_space_group_name_H-M   Pm
_cell_length_a   8.80419000
_cell_length_b   6.22550000
_cell_length_c   26.60310000
_cell_angle_alpha   90.00000000
_cell_angle_beta   90.00000000
_cell_angle_gamma   90.00000000
_symmetry_Int_Tables_number   6
_chemical_formula_structural   Nb8Ni16Sn8CO
_chemical_formula_sum   'Nb8 Ni16 Sn8 C1 O1'
_cell_volume   1458.12880938
_cell_formula_units_Z   1
loop_
 _symmetry_equiv_pos_site_id
 _symmetry_equiv_pos_as_xyz
  1  'x, y, z'
  2  'x, -y, z'
loop_
 _atom_site_type_symbol
 _atom_site_label
 _atom_site_symmetry_multiplicity
 _atom_site_fract_x
 _atom_site_fract_y
 _atom_site_fract_z
 _atom_site_occupancy
  Nb  Nb0  1  0.00000000  0.00000000  0.87590000  1.0
  Nb  Nb1  1  0.00081000  0.00000000  0.04261000  1.0
  Nb  Nb2  1  0.24998000  0.50000000  0.11976000  1.0
  Nb  Nb3  1  0.25000000  0.50000000  0.95863000  1.0
  Nb  Nb4  1  0.49929000  0.00000000  0.04261000  1.0
  Nb  Nb5  1  0.50000000  0.00000000  0.87590000  1.0
  Nb  Nb6  1  0.75000000  0.50000000  0.95863000  1.0
  Nb  Nb7  1  0.75003000  0.50000000  0.12002000  1.0
  Ni  Ni8  2  0.00000000  0.25002000  0.95863000  1.0
  Ni  Ni9  2  0.00010000  0.27309000  0.11854000  1.0
  Ni  Ni10  2  0.25000000  0.25002000  0.87590000  1.0
  Ni  Ni11  2  0.25001000  0.23663000  0.04544000  1.0
  Ni  Ni12  2  0.49992000  0.27320000  0.11855000  1.0
  Ni  Ni13  2  0.50000000  0.24998000  0.95863000  1.0
  Ni  Ni14  2  0.75000000  0.24998000  0.87590000  1.0
  Ni  Ni15  2  0.75006000  0.22630000  0.04748000  1.0
  Sn  Sn16  1  0.00000000  0.50000000  0.87590000  1.0
  Sn  Sn17  1  0.25000000  0.00000000  0.95863000  1.0
  Sn  Sn18  1  0.25009000  0.00000000  0.13576000  1.0
  Sn  Sn19  1  0.50000000  0.50000000  0.87590000  1.0
  Sn  Sn20  1  0.50241000  0.50000000  0.03775000  1.0
  Sn  Sn21  1  0.75000000  0.00000000  0.95863000  1.0
  Sn  Sn22  1  0.75002000  0.00000000  0.13871000  1.0
  Sn  Sn23  1  0.99765000  0.50000000  0.03775000  1.0
  C  C24  1  0.24520000  0.00000000  0.28135000  1.0
  O  O25  1  0.25119000  0.00000000  0.32394000  1.0
