# generated using pymatgen
data_Li8Zn8Ag8Ge8C
_symmetry_space_group_name_H-M   'P 1'
_cell_length_a   8.98822000
_cell_length_b   6.35563000
_cell_length_c   26.74120000
_cell_angle_alpha   90.00000000
_cell_angle_beta   90.00000000
_cell_angle_gamma   90.00000000
_symmetry_Int_Tables_number   1
_chemical_formula_structural   Li8Zn8Ag8Ge8C
_chemical_formula_sum   'Li8 Zn8 Ag8 Ge8 C1'
_cell_volume   1527.61246111
_cell_formula_units_Z   1
loop_
 _symmetry_equiv_pos_site_id
 _symmetry_equiv_pos_as_xyz
  1  'x, y, z'
loop_
 _atom_site_type_symbol
 _atom_site_label
 _atom_site_symmetry_multiplicity
 _atom_site_fract_x
 _atom_site_fract_y
 _atom_site_fract_z
 _atom_site_occupancy
  Li  Li0  1  0.75000000  0.75000000  0.04201000  1.0
  Li  Li1  1  0.25000000  0.75000000  0.04201000  1.0
  Li  Li2  1  0.00000000  0.25000000  0.12604000  1.0
  Li  Li3  1  0.50000000  0.25000000  0.12604000  1.0
  Li  Li4  1  0.27600000  0.73879000  0.85976000  1.0
  Li  Li5  1  0.72400000  0.73879000  0.85976000  1.0
  Li  Li6  1  0.50000000  0.24988000  0.95941000  1.0
  Li  Li7  1  0.00000000  0.26574000  0.94628000  1.0
  Zn  Zn8  1  0.75000000  0.25000000  0.04201000  1.0
  Zn  Zn9  1  0.25000000  0.25000000  0.04201000  1.0
  Zn  Zn10  1  0.00000000  0.75000000  0.12604000  1.0
  Zn  Zn11  1  0.50000000  0.75000000  0.12604000  1.0
  Zn  Zn12  1  0.22416000  0.29476000  0.87079000  1.0
  Zn  Zn13  1  0.77584000  0.29476000  0.87079000  1.0
  Zn  Zn14  1  0.50000000  0.74479000  0.95429000  1.0
  Zn  Zn15  1  0.00000000  0.75152000  0.95882000  1.0
  Ag  Ag16  1  0.75000000  0.00000000  0.12604000  1.0
  Ag  Ag17  1  0.25000000  0.00000000  0.12604000  1.0
  Ag  Ag18  1  0.50000000  0.50000000  0.04201000  1.0
  Ag  Ag19  1  0.00000000  0.50000000  0.04201000  1.0
  Ag  Ag20  1  0.25452000  0.99399000  0.94828000  1.0
  Ag  Ag21  1  0.74548000  0.99399000  0.94828000  1.0
  Ag  Ag22  1  0.00000000  0.55640000  0.83061000  1.0
  Ag  Ag23  1  0.50000000  0.44966000  0.86672000  1.0
  Ge  Ge24  1  0.00000000  0.00000000  0.04201000  1.0
  Ge  Ge25  1  0.50000000  0.00000000  0.04201000  1.0
  Ge  Ge26  1  0.25000000  0.50000000  0.12604000  1.0
  Ge  Ge27  1  0.75000000  0.50000000  0.12604000  1.0
  Ge  Ge28  1  0.50000000  0.01078000  0.87151000  1.0
  Ge  Ge29  1  0.00000000  0.93719000  0.86712000  1.0
  Ge  Ge30  1  0.74636000  0.51611000  0.95573000  1.0
  Ge  Ge31  1  0.25364000  0.51611000  0.95573000  1.0
  C  C32  1  0.00000000  0.23507000  0.86262000  1.0
