# generated using pymatgen
data_Li16Sn8Ge8CO
_symmetry_space_group_name_H-M   P1
_cell_length_a   6.92564000
_cell_length_b   9.79433000
_cell_length_c   27.34580000
_cell_angle_alpha   90.00000000
_cell_angle_beta   90.00000000
_cell_angle_gamma   90.00000000
_symmetry_Int_Tables_number   1
_chemical_formula_structural   Li16Sn8Ge8CO
_chemical_formula_sum   'Li16 Sn8 Ge8 C1 O1'
_cell_volume   1854.92040462
_cell_formula_units_Z   1
loop_
 _symmetry_equiv_pos_site_id
 _symmetry_equiv_pos_as_xyz
  1  'x, y, z'
loop_
 _atom_site_type_symbol
 _atom_site_label
 _atom_site_symmetry_multiplicity
 _atom_site_fract_x
 _atom_site_fract_y
 _atom_site_fract_z
 _atom_site_occupancy
  Li  Li0  1  0.00000000  0.25000000  0.95523000  1.0
  Li  Li1  1  0.00000000  0.75000000  0.95523000  1.0
  Li  Li2  1  0.25000000  0.00000000  0.95523000  1.0
  Li  Li3  1  0.25000000  0.50000000  0.95523000  1.0
  Li  Li4  1  0.25969000  0.50139000  0.12307000  1.0
  Li  Li5  1  0.40655000  0.00179000  0.18442000  1.0
  Li  Li6  1  0.46506000  0.00201000  0.04248000  1.0
  Li  Li7  1  0.50000000  0.00000000  0.86569000  1.0
  Li  Li8  1  0.50000000  0.50000000  0.86569000  1.0
  Li  Li9  1  0.52498000  0.50123000  0.03757000  1.0
  Li  Li10  1  0.75000000  0.25000000  0.86569000  1.0
  Li  Li11  1  0.75000000  0.75000000  0.86569000  1.0
  Li  Li12  1  0.80595000  0.15696000  0.04145000  1.0
  Li  Li13  1  0.80762000  0.84545000  0.04156000  1.0
  Li  Li14  1  0.94415000  0.72876000  0.13243000  1.0
  Li  Li15  1  0.94642000  0.27446000  0.13065000  1.0
  Sn  Sn16  1  0.00000000  0.00000000  0.86569000  1.0
  Sn  Sn17  1  0.00000000  0.50000000  0.86569000  1.0
  Sn  Sn18  1  0.10507000  0.00082000  0.10940000  1.0
  Sn  Sn19  1  0.46811000  0.75005000  0.12094000  1.0
  Sn  Sn20  1  0.46844000  0.25241000  0.12104000  1.0
  Sn  Sn21  1  0.50000000  0.25000000  0.95523000  1.0
  Sn  Sn22  1  0.50000000  0.75000000  0.95523000  1.0
  Sn  Sn23  1  0.98411000  0.50131000  0.04241000  1.0
  Ge  Ge24  1  0.20441000  0.22531000  0.03910000  1.0
  Ge  Ge25  1  0.20538000  0.77719000  0.03894000  1.0
  Ge  Ge26  1  0.25000000  0.25000000  0.86569000  1.0
  Ge  Ge27  1  0.25000000  0.75000000  0.86569000  1.0
  Ge  Ge28  1  0.70491000  0.00091000  0.12375000  1.0
  Ge  Ge29  1  0.71902000  0.50107000  0.12435000  1.0
  Ge  Ge30  1  0.75000000  0.00000000  0.95523000  1.0
  Ge  Ge31  1  0.75000000  0.50000000  0.95523000  1.0
  C  C32  1  0.55685000  0.00199000  0.25111000  1.0
  O  O33  1  0.66141000  0.00162000  0.28336000  1.0
