# generated using pymatgen
data_Al8Cr8Fe16CO
_symmetry_space_group_name_H-M   Pm
_cell_length_a   6.50665000
_cell_length_b   9.20179000
_cell_length_c   26.90130000
_cell_angle_alpha   90.00000000
_cell_angle_beta   90.00000000
_cell_angle_gamma   90.00000000
_symmetry_Int_Tables_number   6
_chemical_formula_structural   Al8Cr8Fe16CO
_chemical_formula_sum   'Al8 Cr8 Fe16 C1 O1'
_cell_volume   1610.65687838
_cell_formula_units_Z   1
loop_
 _symmetry_equiv_pos_site_id
 _symmetry_equiv_pos_as_xyz
  1  'x, y, z'
  2  'x, -y, z'
loop_
 _atom_site_type_symbol
 _atom_site_label
 _atom_site_symmetry_multiplicity
 _atom_site_fract_x
 _atom_site_fract_y
 _atom_site_fract_z
 _atom_site_occupancy
  Al  Al0  2  0.50000000  0.25000000  0.12827000  1.0
  Al  Al1  2  0.50000000  0.25000000  0.95724000  1.0
  Al  Al2  1  -0.00000000  0.50000000  0.04276000  1.0
  Al  Al3  1  -0.00000000  0.50000000  0.87173000  1.0
  Al  Al4  1  0.00000000  0.00000000  0.04276000  1.0
  Al  Al5  1  0.00000000  0.00000000  0.87173000  1.0
  Cr  Cr6  2  -0.00000000  0.25000000  0.95724000  1.0
  Cr  Cr7  2  0.00000000  0.25000000  0.12827000  1.0
  Cr  Cr8  1  0.50000000  0.00000000  0.04276000  1.0
  Cr  Cr9  1  0.50000000  0.00000000  0.87173000  1.0
  Cr  Cr10  1  0.50000000  0.50000000  0.04276000  1.0
  Cr  Cr11  1  0.50000000  0.50000000  0.87173000  1.0
  Fe  Fe12  2  0.25000000  0.25000000  0.04276000  1.0
  Fe  Fe13  2  0.25000000  0.25000000  0.87173000  1.0
  Fe  Fe14  2  0.75000000  0.25000000  0.04276000  1.0
  Fe  Fe15  2  0.75000000  0.25000000  0.87173000  1.0
  Fe  Fe16  1  0.25000000  0.00000000  0.12827000  1.0
  Fe  Fe17  1  0.25000000  0.00000000  0.95724000  1.0
  Fe  Fe18  1  0.25000000  0.50000000  0.12827000  1.0
  Fe  Fe19  1  0.25000000  0.50000000  0.95724000  1.0
  Fe  Fe20  1  0.75000000  0.00000000  0.12827000  1.0
  Fe  Fe21  1  0.75000000  0.00000000  0.95724000  1.0
  Fe  Fe22  1  0.75000000  0.50000000  0.12827000  1.0
  Fe  Fe23  1  0.75000000  0.50000000  0.95724000  1.0
  C  C24  1  0.25000000  0.00000000  0.19890000  1.0
  O  O25  1  0.25000000  0.00000000  0.24165000  1.0
