# generated using pymatgen
data_Cu16Ni8Sn8C
_symmetry_space_group_name_H-M   'P 1'
_cell_length_a   6.14873000
_cell_length_b   8.69561000
_cell_length_c   26.52170000
_cell_angle_alpha   90.00000000
_cell_angle_beta   90.00000000
_cell_angle_gamma   90.00000000
_symmetry_Int_Tables_number   1
_chemical_formula_structural   Cu16Ni8Sn8C
_chemical_formula_sum   'Cu16 Ni8 Sn8 C1'
_cell_volume   1418.03462199
_cell_formula_units_Z   1
loop_
 _symmetry_equiv_pos_site_id
 _symmetry_equiv_pos_as_xyz
  1  'x, y, z'
loop_
 _atom_site_type_symbol
 _atom_site_label
 _atom_site_symmetry_multiplicity
 _atom_site_fract_x
 _atom_site_fract_y
 _atom_site_fract_z
 _atom_site_occupancy
  Cu  Cu0  1  0.25000000  0.50000000  0.95902000  1.0
  Cu  Cu1  1  0.75000000  0.00000000  0.95902000  1.0
  Cu  Cu2  1  0.75000000  0.50000000  0.95902000  1.0
  Cu  Cu3  1  0.25000000  0.00000000  0.95902000  1.0
  Cu  Cu4  1  0.75000000  0.25001000  0.87705000  1.0
  Cu  Cu5  1  0.25000000  0.74999000  0.87705000  1.0
  Cu  Cu6  1  0.25000000  0.25001000  0.87705000  1.0
  Cu  Cu7  1  0.75000000  0.74999000  0.87705000  1.0
  Cu  Cu8  1  0.28340000  0.00000000  0.11960000  1.0
  Cu  Cu9  1  0.80447000  0.50000000  0.12057000  1.0
  Cu  Cu10  1  0.71660000  0.00000000  0.11960000  1.0
  Cu  Cu11  1  0.19553000  0.50000000  0.12057000  1.0
  Cu  Cu12  1  0.78009000  0.75008000  0.05082000  1.0
  Cu  Cu13  1  0.21991000  0.24992000  0.05082000  1.0
  Cu  Cu14  1  0.21991000  0.75008000  0.05082000  1.0
  Cu  Cu15  1  0.78009000  0.24992000  0.05082000  1.0
  Ni  Ni16  1  0.00000000  0.50000000  0.87705000  1.0
  Ni  Ni17  1  0.50000000  0.75001000  0.95902000  1.0
  Ni  Ni18  1  0.50000000  0.24999000  0.95902000  1.0
  Ni  Ni19  1  0.00000000  0.00000000  0.87705000  1.0
  Ni  Ni20  1  0.00000000  0.00000000  0.03929000  1.0
  Ni  Ni21  1  0.50000000  0.29207000  0.12207000  1.0
  Ni  Ni22  1  0.50000000  0.70793000  0.12207000  1.0
  Ni  Ni23  1  0.00000000  0.50000000  0.03447000  1.0
  Sn  Sn24  1  0.00000000  0.25001000  0.95902000  1.0
  Sn  Sn25  1  0.50000000  0.50000000  0.87705000  1.0
  Sn  Sn26  1  0.00000000  0.74999000  0.95902000  1.0
  Sn  Sn27  1  0.50000000  0.00000000  0.87705000  1.0
  Sn  Sn28  1  0.00000000  0.77218000  0.14453000  1.0
  Sn  Sn29  1  0.50000000  0.00000000  0.03665000  1.0
  Sn  Sn30  1  0.00000000  0.22782000  0.14453000  1.0
  Sn  Sn31  1  0.50000000  0.50000000  0.03750000  1.0
  C  C32  1  0.50000000  0.50000000  0.13496000  1.0
