# generated using pymatgen
data_Hf8Al8Au16CO
_symmetry_space_group_name_H-M   Pmm2
_cell_length_a   6.63475000
_cell_length_b   9.38295000
_cell_length_c   27.03720000
_cell_angle_alpha   90.00000000
_cell_angle_beta   90.00000000
_cell_angle_gamma   90.00000000
_symmetry_Int_Tables_number   25
_chemical_formula_structural   Hf8Al8Au16CO
_chemical_formula_sum   'Hf8 Al8 Au16 C1 O1'
_cell_volume   1683.16107406
_cell_formula_units_Z   1
loop_
 _symmetry_equiv_pos_site_id
 _symmetry_equiv_pos_as_xyz
  1  'x, y, z'
  2  '-x, -y, z'
  3  '-x, y, z'
  4  'x, -y, z'
loop_
 _atom_site_type_symbol
 _atom_site_label
 _atom_site_symmetry_multiplicity
 _atom_site_fract_x
 _atom_site_fract_y
 _atom_site_fract_z
 _atom_site_occupancy
  Hf  Hf0  2  0.00000000  0.24900000  0.04905000  1.0
  Hf  Hf1  2  0.00000000  0.25000000  0.86986000  1.0
  Hf  Hf2  1  0.50000000  0.00000000  0.12396000  1.0
  Hf  Hf3  1  0.50000000  0.00000000  0.95662000  1.0
  Hf  Hf4  1  0.50000000  0.50000000  0.12501000  1.0
  Hf  Hf5  1  0.50000000  0.50000000  0.95662000  1.0
  Al  Al6  2  0.50000000  0.25000000  0.86986000  1.0
  Al  Al7  2  0.50000000  0.25207000  0.04274000  1.0
  Al  Al8  1  0.00000000  0.00000000  0.12997000  1.0
  Al  Al9  1  0.00000000  0.00000000  0.95662000  1.0
  Al  Al10  1  0.00000000  0.50000000  0.13072000  1.0
  Al  Al11  1  0.00000000  0.50000000  0.95662000  1.0
  Au  Au12  4  0.25000000  0.25000000  0.95662000  1.0
  Au  Au13  4  0.26048000  0.25189000  0.13284000  1.0
  Au  Au14  2  0.24457000  0.50000000  0.04080000  1.0
  Au  Au15  2  0.24766000  0.00000000  0.04069000  1.0
  Au  Au16  2  0.25000000  0.50000000  0.86986000  1.0
  Au  Au17  2  0.25000000  0.00000000  0.86986000  1.0
  C  C18  1  0.00000000  0.00000000  0.20356000  1.0
  O  O19  1  0.00000000  0.00000000  0.24618000  1.0
