# generated using pymatgen
data_Li4In4Ge4Au4C
_symmetry_space_group_name_H-M   'P 1'
_cell_length_a   8.39470000
_cell_length_b   6.02588000
_cell_length_c   24.51900000
_cell_angle_alpha   90.00000000
_cell_angle_beta   90.00000000
_cell_angle_gamma   90.00000000
_symmetry_Int_Tables_number   1
_chemical_formula_structural   Li4In4Ge4Au4C
_chemical_formula_sum   'Li4 In4 Ge4 Au4 C1'
_cell_volume   1240.30476712
_cell_formula_units_Z   1
loop_
 _symmetry_equiv_pos_site_id
 _symmetry_equiv_pos_as_xyz
  1  'x, y, z'
loop_
 _atom_site_type_symbol
 _atom_site_label
 _atom_site_symmetry_multiplicity
 _atom_site_fract_x
 _atom_site_fract_y
 _atom_site_fract_z
 _atom_site_occupancy
  Li  Li0  1  0.75000000  0.75330000  0.96928000  1.0
  Li  Li1  1  0.82989000  0.25573000  0.10069000  1.0
  Li  Li2  1  0.25000000  0.75330000  0.96928000  1.0
  Li  Li3  1  0.17011000  0.25573000  0.10069000  1.0
  In  In4  1  0.75000000  0.25330000  0.96928000  1.0
  In  In5  1  0.79647000  0.76521000  0.11393000  1.0
  In  In6  1  0.25000000  0.25330000  0.96928000  1.0
  In  In7  1  0.20353000  0.76521000  0.11393000  1.0
  Ge  Ge8  1  0.00000000  0.50000000  0.90785000  1.0
  Ge  Ge9  1  0.00000000  0.98841000  0.02590000  1.0
  Ge  Ge10  1  0.50000000  0.50000000  0.90785000  1.0
  Ge  Ge11  1  0.50000000  0.97635000  0.04468000  1.0
  Au  Au12  1  0.00000000  0.00000000  0.90785000  1.0
  Au  Au13  1  0.00000000  0.52870000  0.02001000  1.0
  Au  Au14  1  0.50000000  0.00000000  0.90785000  1.0
  Au  Au15  1  0.50000000  0.55252000  0.02220000  1.0
  C  C16  1  0.00000000  0.50660000  0.11144000  1.0
