# generated using pymatgen
data_Li4In4Ge4Au4C
_symmetry_space_group_name_H-M   Pm
_cell_length_a   6.02588000
_cell_length_b   8.39470000
_cell_length_c   24.51900000
_cell_angle_alpha   90.00000000
_cell_angle_beta   90.00000000
_cell_angle_gamma   90.00000000
_symmetry_Int_Tables_number   6
_chemical_formula_structural   Li4In4Ge4Au4C
_chemical_formula_sum   'Li4 In4 Ge4 Au4 C1'
_cell_volume   1240.30476712
_cell_formula_units_Z   1
loop_
 _symmetry_equiv_pos_site_id
 _symmetry_equiv_pos_as_xyz
  1  'x, y, z'
  2  'x, -y, z'
loop_
 _atom_site_type_symbol
 _atom_site_label
 _atom_site_symmetry_multiplicity
 _atom_site_fract_x
 _atom_site_fract_y
 _atom_site_fract_z
 _atom_site_occupancy
  Li  Li0  2  0.25573000  0.17011000  0.89931000  1.0
  Li  Li1  2  0.75330000  0.25000000  0.03072000  1.0
  In  In2  2  0.25330000  0.25000000  0.03072000  1.0
  In  In3  2  0.76521000  0.20353000  0.88607000  1.0
  Ge  Ge4  1  0.50000000  0.00000000  0.09215000  1.0
  Ge  Ge5  1  0.50000000  0.50000000  0.09215000  1.0
  Ge  Ge6  1  0.97635000  0.50000000  0.95532000  1.0
  Ge  Ge7  1  0.98841000  0.00000000  0.97410000  1.0
  Au  Au8  1  0.00000000  0.00000000  0.09215000  1.0
  Au  Au9  1  0.00000000  0.50000000  0.09215000  1.0
  Au  Au10  1  0.52870000  0.00000000  0.97999000  1.0
  Au  Au11  1  0.55252000  0.50000000  0.97780000  1.0
  C  C12  1  0.50660000  0.00000000  0.88856000  1.0
