# generated using pymatgen
data_YInCuSn
_symmetry_space_group_name_H-M   Pm
_cell_length_a   6.36255000
_cell_length_b   4.41425000
_cell_length_c   24.76930000
_cell_angle_alpha   90.00000000
_cell_angle_beta   90.00000000
_cell_angle_gamma   90.00000000
_symmetry_Int_Tables_number   6
_chemical_formula_structural   YInCuSn
_chemical_formula_sum   'Y2 In2 Cu2 Sn2'
_cell_volume   695.66774446
_cell_formula_units_Z   2
loop_
 _symmetry_equiv_pos_site_id
 _symmetry_equiv_pos_as_xyz
  1  'x, y, z'
  2  'x, -y, z'
loop_
 _atom_site_type_symbol
 _atom_site_label
 _atom_site_symmetry_multiplicity
 _atom_site_fract_x
 _atom_site_fract_y
 _atom_site_fract_z
 _atom_site_occupancy
  Y  Y0  1  0.17722500  0.50000000  0.95126000  1.0
  Y  Y1  1  0.77490000  0.50000000  0.09627000  1.0
  In  In2  1  0.27490000  0.50000000  0.09627000  1.0
  In  In3  1  0.66293000  0.50000000  0.96946000  1.0
  Cu  Cu4  1  0.51660000  0.00000000  0.03209000  1.0
  Cu  Cu5  1  0.87523500  0.00000000  0.92970000  1.0
  Sn  Sn6  1  0.01660000  0.00000000  0.03209000  1.0
  Sn  Sn7  1  0.47816500  0.00000000  0.89694000  1.0
