data_image0
_chemical_formula_structural       ScCoScCoScCoScCoScCoScCoScCoScCoScCoScCoScCoScCoScCoScCoScCoScCoCO
_chemical_formula_sum              "Sc16 Co16 C1 O1"
_cell_length_a       6.24301
_cell_length_b       8.82895
_cell_length_c       26.6217
_cell_angle_alpha    90
_cell_angle_beta     90
_cell_angle_gamma    90

_space_group_name_H-M_alt    "P 1"
_space_group_IT_number       1

loop_
  _space_group_symop_operation_xyz
  'x, y, z'

loop_
  _atom_site_type_symbol
  _atom_site_label
  _atom_site_symmetry_multiplicity
  _atom_site_fract_x
  _atom_site_fract_y
  _atom_site_fract_z
  _atom_site_occupancy
  Sc  Sc1       1.0  0.25000  0.25000  0.87563  1.0000
  Co  Co1       1.0  0.00000  0.00000  0.87563  1.0000
  Sc  Sc2       1.0  0.25000  0.00000  0.95854  1.0000
  Co  Co2       1.0  0.00000  0.25000  0.95854  1.0000
  Sc  Sc3       1.0  0.25000  0.25000  0.04146  1.0000
  Co  Co3       1.0  0.00000  0.00000  0.04146  1.0000
  Sc  Sc4       1.0  0.25000  0.00000  0.12437  1.0000
  Co  Co4       1.0  0.00000  0.25000  0.12437  1.0000
  Sc  Sc5       1.0  0.25000  0.75000  0.87563  1.0000
  Co  Co5       1.0  0.00000  0.50000  0.87563  1.0000
  Sc  Sc6       1.0  0.25000  0.50000  0.95854  1.0000
  Co  Co6       1.0  0.00000  0.75000  0.95854  1.0000
  Sc  Sc7       1.0  0.25000  0.75000  0.04146  1.0000
  Co  Co7       1.0  0.00000  0.50000  0.04146  1.0000
  Sc  Sc8       1.0  0.25000  0.50000  0.12437  1.0000
  Co  Co8       1.0  0.00000  0.75000  0.12437  1.0000
  Sc  Sc9       1.0  0.75000  0.25000  0.87563  1.0000
  Co  Co9       1.0  0.50000  0.00000  0.87563  1.0000
  Sc  Sc10      1.0  0.75000  0.00000  0.95854  1.0000
  Co  Co10      1.0  0.50000  0.25000  0.95854  1.0000
  Sc  Sc11      1.0  0.75000  0.25000  0.04146  1.0000
  Co  Co11      1.0  0.50000  0.00000  0.04146  1.0000
  Sc  Sc12      1.0  0.75000  0.00000  0.12437  1.0000
  Co  Co12      1.0  0.50000  0.25000  0.12437  1.0000
  Sc  Sc13      1.0  0.75000  0.75000  0.87563  1.0000
  Co  Co13      1.0  0.50000  0.50000  0.87563  1.0000
  Sc  Sc14      1.0  0.75000  0.50000  0.95854  1.0000
  Co  Co14      1.0  0.50000  0.75000  0.95854  1.0000
  Sc  Sc15      1.0  0.75000  0.75000  0.04146  1.0000
  Co  Co15      1.0  0.50000  0.50000  0.04146  1.0000
  Sc  Sc16      1.0  0.75000  0.50000  0.12437  1.0000
  Co  Co16      1.0  0.50000  0.75000  0.12437  1.0000
  C   C1        1.0  0.00000  0.25000  0.19574  1.0000
  O   O1        1.0  0.00000  0.25000  0.23893  1.0000
