# generated using pymatgen
data_Sc16Co16CO
_symmetry_space_group_name_H-M   Pmm2
_cell_length_a   6.24301000
_cell_length_b   8.82895000
_cell_length_c   26.62170000
_cell_angle_alpha   90.00000000
_cell_angle_beta   90.00000000
_cell_angle_gamma   90.00000000
_symmetry_Int_Tables_number   25
_chemical_formula_structural   Sc16Co16CO
_chemical_formula_sum   'Sc16 Co16 C1 O1'
_cell_volume   1467.36742265
_cell_formula_units_Z   1
loop_
 _symmetry_equiv_pos_site_id
 _symmetry_equiv_pos_as_xyz
  1  'x, y, z'
  2  '-x, -y, z'
  3  '-x, y, z'
  4  'x, -y, z'
loop_
 _atom_site_type_symbol
 _atom_site_label
 _atom_site_symmetry_multiplicity
 _atom_site_fract_x
 _atom_site_fract_y
 _atom_site_fract_z
 _atom_site_occupancy
  Sc  Sc0  4  0.24963000  0.24962000  0.12582000  1.0
  Sc  Sc1  4  0.25000000  0.25000000  0.95854000  1.0
  Sc  Sc2  2  0.24999000  0.50000000  0.04234000  1.0
  Sc  Sc3  2  0.25000000  0.00000000  0.87563000  1.0
  Sc  Sc4  2  0.25000000  0.50000000  0.87563000  1.0
  Sc  Sc5  2  0.25204000  0.00000000  0.04171000  1.0
  Co  Co6  2  0.00000000  0.24854000  0.04295000  1.0
  Co  Co7  2  0.00000000  0.25000000  0.87563000  1.0
  Co  Co8  2  0.50000000  0.25000000  0.87563000  1.0
  Co  Co9  2  0.50000000  0.25008000  0.04259000  1.0
  Co  Co10  1  0.00000000  0.00000000  0.12805000  1.0
  Co  Co11  1  0.00000000  0.00000000  0.95854000  1.0
  Co  Co12  1  0.00000000  0.50000000  0.12176000  1.0
  Co  Co13  1  0.00000000  0.50000000  0.95854000  1.0
  Co  Co14  1  0.50000000  0.00000000  0.12108000  1.0
  Co  Co15  1  0.50000000  0.00000000  0.95854000  1.0
  Co  Co16  1  0.50000000  0.50000000  0.12214000  1.0
  Co  Co17  1  0.50000000  0.50000000  0.95854000  1.0
  C  C18  1  0.00000000  0.00000000  0.19241000  1.0
  O  O19  1  0.00000000  0.00000000  0.23630000  1.0
