data_image0
_chemical_formula_structural       Y16Cu16C
_chemical_formula_sum              "Y16 Cu16 C1"
_cell_length_a       6.99068
_cell_length_b       9.88632
_cell_length_c       27.4147
_cell_angle_alpha    90
_cell_angle_beta     90
_cell_angle_gamma    90

_space_group_name_H-M_alt    "P 1"
_space_group_IT_number       1

loop_
  _space_group_symop_operation_xyz
  'x, y, z'

loop_
  _atom_site_type_symbol
  _atom_site_label
  _atom_site_symmetry_multiplicity
  _atom_site_fract_x
  _atom_site_fract_y
  _atom_site_fract_z
  _atom_site_occupancy
  Y   Y1        1.0  0.00000  0.00000  0.86477  1.0000
  Y   Y2        1.0  0.00000  0.25000  0.95492  1.0000
  Y   Y3        1.0  0.99838  0.99617  0.04321  1.0000
  Y   Y4        1.0  0.00691  0.25669  0.13501  1.0000
  Y   Y5        1.0  0.00000  0.50000  0.86477  1.0000
  Y   Y6        1.0  0.00000  0.75000  0.95492  1.0000
  Y   Y7        1.0  0.00547  0.49853  0.04712  1.0000
  Y   Y8        1.0  0.99722  0.76326  0.13839  1.0000
  Y   Y9        1.0  0.50000  0.00000  0.86477  1.0000
  Y   Y10       1.0  0.50000  0.25000  0.95492  1.0000
  Y   Y11       1.0  0.50162  0.99617  0.04321  1.0000
  Y   Y12       1.0  0.49310  0.25669  0.13501  1.0000
  Y   Y13       1.0  0.50000  0.50000  0.86477  1.0000
  Y   Y14       1.0  0.50000  0.75000  0.95492  1.0000
  Y   Y15       1.0  0.49453  0.49852  0.04712  1.0000
  Y   Y16       1.0  0.50279  0.76326  0.13839  1.0000
  Cu  Cu1       1.0  0.25000  0.25000  0.86477  1.0000
  Cu  Cu2       1.0  0.25000  0.00000  0.95492  1.0000
  Cu  Cu3       1.0  0.25000  0.23091  0.04063  1.0000
  Cu  Cu4       1.0  0.25000  0.53424  0.13456  1.0000
  Cu  Cu5       1.0  0.25000  0.75000  0.86477  1.0000
  Cu  Cu6       1.0  0.25000  0.50000  0.95492  1.0000
  Cu  Cu7       1.0  0.25000  0.75104  0.05234  1.0000
  Cu  Cu8       1.0  0.25000  0.00171  0.12636  1.0000
  Cu  Cu9       1.0  0.75000  0.25000  0.86477  1.0000
  Cu  Cu10      1.0  0.75000  0.00000  0.95492  1.0000
  Cu  Cu11      1.0  0.75000  0.24477  0.04748  1.0000
  Cu  Cu12      1.0  0.75001  0.51221  0.13086  1.0000
  Cu  Cu13      1.0  0.75000  0.75000  0.86477  1.0000
  Cu  Cu14      1.0  0.75000  0.50000  0.95492  1.0000
  Cu  Cu15      1.0  0.75001  0.75122  0.05133  1.0000
  Cu  Cu16      1.0  0.75000  0.00587  0.12495  1.0000
  C   C1        1.0  0.25001  0.36740  0.09393  1.0000
