# generated using pymatgen
data_Y16Cu16C
_symmetry_space_group_name_H-M   'P 1'
_cell_length_a   9.88632000
_cell_length_b   6.99068000
_cell_length_c   27.41470000
_cell_angle_alpha   90.00000000
_cell_angle_beta   90.00000000
_cell_angle_gamma   90.00000000
_symmetry_Int_Tables_number   1
_chemical_formula_structural   Y16Cu16C
_chemical_formula_sum   'Y16 Cu16 C1'
_cell_volume   1894.68747410
_cell_formula_units_Z   1
loop_
 _symmetry_equiv_pos_site_id
 _symmetry_equiv_pos_as_xyz
  1  'x, y, z'
loop_
 _atom_site_type_symbol
 _atom_site_label
 _atom_site_symmetry_multiplicity
 _atom_site_fract_x
 _atom_site_fract_y
 _atom_site_fract_z
 _atom_site_occupancy
  Y  Y0  1  0.00000000  0.75001000  0.13523000  1.0
  Y  Y1  1  0.25000000  0.75001000  0.04508000  1.0
  Y  Y2  1  0.99617000  0.75163000  0.95679000  1.0
  Y  Y3  1  0.25669000  0.74310000  0.86499000  1.0
  Y  Y4  1  0.50000000  0.75001000  0.13523000  1.0
  Y  Y5  1  0.75000000  0.75001000  0.04508000  1.0
  Y  Y6  1  0.49853000  0.74454000  0.95288000  1.0
  Y  Y7  1  0.76326000  0.75279000  0.86161000  1.0
  Y  Y8  1  0.00000000  0.24999000  0.13523000  1.0
  Y  Y9  1  0.25000000  0.24999000  0.04508000  1.0
  Y  Y10  1  0.99617000  0.24837000  0.95679000  1.0
  Y  Y11  1  0.25669000  0.25690000  0.86499000  1.0
  Y  Y12  1  0.50000000  0.24999000  0.13523000  1.0
  Y  Y13  1  0.75000000  0.24999000  0.04508000  1.0
  Y  Y14  1  0.49853000  0.25546000  0.95288000  1.0
  Y  Y15  1  0.76326000  0.24721000  0.86161000  1.0
  Cu  Cu16  1  0.25000000  0.50000000  0.13523000  1.0
  Cu  Cu17  1  0.00000000  0.50000000  0.04508000  1.0
  Cu  Cu18  1  0.23091000  0.50000000  0.95937000  1.0
  Cu  Cu19  1  0.53424000  0.50000000  0.86544000  1.0
  Cu  Cu20  1  0.75000000  0.50000000  0.13523000  1.0
  Cu  Cu21  1  0.50000000  0.50000000  0.04508000  1.0
  Cu  Cu22  1  0.75104000  0.50000000  0.94766000  1.0
  Cu  Cu23  1  0.00171000  0.50000000  0.87364000  1.0
  Cu  Cu24  1  0.25000000  0.00000000  0.13523000  1.0
  Cu  Cu25  1  0.00000000  0.00000000  0.04508000  1.0
  Cu  Cu26  1  0.24477000  0.00000000  0.95252000  1.0
  Cu  Cu27  1  0.51221000  0.00000000  0.86914000  1.0
  Cu  Cu28  1  0.75000000  0.00000000  0.13523000  1.0
  Cu  Cu29  1  0.50000000  0.00000000  0.04508000  1.0
  Cu  Cu30  1  0.75122000  0.00000000  0.94867000  1.0
  Cu  Cu31  1  0.00587000  0.00000000  0.87505000  1.0
  C  C32  1  0.36740000  0.50000000  0.90607000  1.0
