# generated using pymatgen
data_Y16Cu16C
_symmetry_space_group_name_H-M   Pm
_cell_length_a   9.88632000
_cell_length_b   6.99068000
_cell_length_c   27.41470000
_cell_angle_alpha   90.00000000
_cell_angle_beta   90.00000000
_cell_angle_gamma   90.00000000
_symmetry_Int_Tables_number   6
_chemical_formula_structural   Y16Cu16C
_chemical_formula_sum   'Y16 Cu16 C1'
_cell_volume   1894.68747410
_cell_formula_units_Z   1
loop_
 _symmetry_equiv_pos_site_id
 _symmetry_equiv_pos_as_xyz
  1  'x, y, z'
  2  'x, -y, z'
loop_
 _atom_site_type_symbol
 _atom_site_label
 _atom_site_symmetry_multiplicity
 _atom_site_fract_x
 _atom_site_fract_y
 _atom_site_fract_z
 _atom_site_occupancy
  Y  Y0  2  0.00000000  0.24999000  0.86477000  1.0
  Y  Y1  2  0.25000000  0.24999000  0.95492000  1.0
  Y  Y2  2  0.25669000  0.25690000  0.13501000  1.0
  Y  Y3  2  0.49853000  0.25546000  0.04712000  1.0
  Y  Y4  2  0.50000000  0.24999000  0.86477000  1.0
  Y  Y5  2  0.75000000  0.24999000  0.95492000  1.0
  Y  Y6  2  0.76326000  0.24721000  0.13839000  1.0
  Y  Y7  2  0.99617000  0.24837000  0.04321000  1.0
  Cu  Cu8  1  0.00000000  0.00000000  0.95492000  1.0
  Cu  Cu9  1  0.00000000  0.50000000  0.95492000  1.0
  Cu  Cu10  1  0.00171000  0.50000000  0.12636000  1.0
  Cu  Cu11  1  0.00587000  0.00000000  0.12495000  1.0
  Cu  Cu12  1  0.23091000  0.50000000  0.04063000  1.0
  Cu  Cu13  1  0.24477000  0.00000000  0.04748000  1.0
  Cu  Cu14  1  0.25000000  0.00000000  0.86477000  1.0
  Cu  Cu15  1  0.25000000  0.50000000  0.86477000  1.0
  Cu  Cu16  1  0.50000000  0.00000000  0.95492000  1.0
  Cu  Cu17  1  0.50000000  0.50000000  0.95492000  1.0
  Cu  Cu18  1  0.51221000  0.00000000  0.13086000  1.0
  Cu  Cu19  1  0.53424000  0.50000000  0.13456000  1.0
  Cu  Cu20  1  0.75000000  0.00000000  0.86477000  1.0
  Cu  Cu21  1  0.75000000  0.50000000  0.86477000  1.0
  Cu  Cu22  1  0.75104000  0.50000000  0.05234000  1.0
  Cu  Cu23  1  0.75122000  0.00000000  0.05133000  1.0
  C  C24  1  0.36740000  0.50000000  0.09393000  1.0
