# generated using pymatgen
data_Li8Mn8Ge8Pd8CO
_symmetry_space_group_name_H-M   'P 1'
_cell_length_a   8.69336000
_cell_length_b   6.14713000
_cell_length_c   26.52000000
_cell_angle_alpha   90.00000000
_cell_angle_beta   90.00000000
_cell_angle_gamma   90.00000000
_symmetry_Int_Tables_number   1
_chemical_formula_structural   Li8Mn8Ge8Pd8CO
_chemical_formula_sum   'Li8 Mn8 Ge8 Pd8 C1 O1'
_cell_volume   1417.20795679
_cell_formula_units_Z   1
loop_
 _symmetry_equiv_pos_site_id
 _symmetry_equiv_pos_as_xyz
  1  'x, y, z'
loop_
 _atom_site_type_symbol
 _atom_site_label
 _atom_site_symmetry_multiplicity
 _atom_site_fract_x
 _atom_site_fract_y
 _atom_site_fract_z
 _atom_site_occupancy
  Li  Li0  1  0.25000000  0.00000000  0.04098000  1.0
  Li  Li1  1  0.75000000  0.00000000  0.04098000  1.0
  Li  Li2  1  0.50000000  0.50000000  0.12293000  1.0
  Li  Li3  1  0.00000000  0.50000000  0.12293000  1.0
  Li  Li4  1  0.74054000  0.98588000  0.86118000  1.0
  Li  Li5  1  0.25946000  0.98588000  0.86118000  1.0
  Li  Li6  1  0.00000000  0.51352000  0.95914000  1.0
  Li  Li7  1  0.50000000  0.49611000  0.96451000  1.0
  Mn  Mn8  1  0.00000000  0.25000000  0.04098000  1.0
  Mn  Mn9  1  0.50000000  0.25000000  0.04098000  1.0
  Mn  Mn10  1  0.25000000  0.75000000  0.12293000  1.0
  Mn  Mn11  1  0.75000000  0.75000000  0.12293000  1.0
  Mn  Mn12  1  0.50000000  0.27480000  0.88046000  1.0
  Mn  Mn13  1  0.00000000  0.26484000  0.88049000  1.0
  Mn  Mn14  1  0.75056000  0.75456000  0.95430000  1.0
  Mn  Mn15  1  0.24944000  0.75456000  0.95430000  1.0
  Ge  Ge16  1  0.00000000  0.00000000  0.12293000  1.0
  Ge  Ge17  1  0.50000000  0.00000000  0.12293000  1.0
  Ge  Ge18  1  0.75000000  0.50000000  0.04098000  1.0
  Ge  Ge19  1  0.25000000  0.50000000  0.04098000  1.0
  Ge  Ge20  1  0.50000000  0.00539000  0.95845000  1.0
  Ge  Ge21  1  0.00000000  0.99755000  0.95886000  1.0
  Ge  Ge22  1  0.24872000  0.49194000  0.87331000  1.0
  Ge  Ge23  1  0.75128000  0.49194000  0.87331000  1.0
  Pd  Pd24  1  0.00000000  0.75000000  0.04098000  1.0
  Pd  Pd25  1  0.50000000  0.75000000  0.04098000  1.0
  Pd  Pd26  1  0.25000000  0.25000000  0.12293000  1.0
  Pd  Pd27  1  0.75000000  0.25000000  0.12293000  1.0
  Pd  Pd28  1  0.50000000  0.72871000  0.88589000  1.0
  Pd  Pd29  1  0.00000000  0.76584000  0.87096000  1.0
  Pd  Pd30  1  0.75346000  0.24428000  0.95684000  1.0
  Pd  Pd31  1  0.24654000  0.24428000  0.95684000  1.0
  C  C32  1  0.00000000  0.86229000  0.80093000  1.0
  O  O33  1  0.00000000  0.88037000  0.75755000  1.0
