# generated using pymatgen
data_Li8Mn8Ge8Pd8CO
_symmetry_space_group_name_H-M   Pm
_cell_length_a   6.14713000
_cell_length_b   8.69336000
_cell_length_c   26.52000000
_cell_angle_alpha   90.00000000
_cell_angle_beta   90.00000000
_cell_angle_gamma   90.00000000
_symmetry_Int_Tables_number   6
_chemical_formula_structural   Li8Mn8Ge8Pd8CO
_chemical_formula_sum   'Li8 Mn8 Ge8 Pd8 C1 O1'
_cell_volume   1417.20795679
_cell_formula_units_Z   1
loop_
 _symmetry_equiv_pos_site_id
 _symmetry_equiv_pos_as_xyz
  1  'x, y, z'
  2  'x, -y, z'
loop_
 _atom_site_type_symbol
 _atom_site_label
 _atom_site_symmetry_multiplicity
 _atom_site_fract_x
 _atom_site_fract_y
 _atom_site_fract_z
 _atom_site_occupancy
  Li  Li0  2  0.00000000  0.25000000  0.95902000  1.0
  Li  Li1  2  0.98588000  0.25946000  0.13882000  1.0
  Li  Li2  1  0.49611000  0.50000000  0.03549000  1.0
  Li  Li3  1  0.50000000  0.00000000  0.87707000  1.0
  Li  Li4  1  0.50000000  0.50000000  0.87707000  1.0
  Li  Li5  1  0.51352000  0.00000000  0.04086000  1.0
  Mn  Mn6  2  0.75000000  0.25000000  0.87707000  1.0
  Mn  Mn7  2  0.75456000  0.24944000  0.04570000  1.0
  Mn  Mn8  1  0.25000000  0.00000000  0.95902000  1.0
  Mn  Mn9  1  0.25000000  0.50000000  0.95902000  1.0
  Mn  Mn10  1  0.26484000  0.00000000  0.11951000  1.0
  Mn  Mn11  1  0.27480000  0.50000000  0.11954000  1.0
  Ge  Ge12  2  0.49194000  0.24872000  0.12669000  1.0
  Ge  Ge13  2  0.50000000  0.25000000  0.95902000  1.0
  Ge  Ge14  1  0.00000000  0.00000000  0.87707000  1.0
  Ge  Ge15  1  0.00000000  0.50000000  0.87707000  1.0
  Ge  Ge16  1  0.00539000  0.50000000  0.04155000  1.0
  Ge  Ge17  1  0.99755000  0.00000000  0.04114000  1.0
  Pd  Pd18  2  0.24428000  0.24654000  0.04316000  1.0
  Pd  Pd19  2  0.25000000  0.25000000  0.87707000  1.0
  Pd  Pd20  1  0.72871000  0.50000000  0.11411000  1.0
  Pd  Pd21  1  0.75000000  0.00000000  0.95902000  1.0
  Pd  Pd22  1  0.75000000  0.50000000  0.95902000  1.0
  Pd  Pd23  1  0.76584000  0.00000000  0.12904000  1.0
  C  C24  1  0.86229000  0.00000000  0.19907000  1.0
  O  O25  1  0.88037000  0.00000000  0.24245000  1.0
