# generated using pymatgen
data_Zn8Co16Ge8CO
_symmetry_space_group_name_H-M   Pmm2
_cell_length_a   5.75846000
_cell_length_b   8.14369000
_cell_length_c   26.10780000
_cell_angle_alpha   90.00000000
_cell_angle_beta   90.00000000
_cell_angle_gamma   90.00000000
_symmetry_Int_Tables_number   25
_chemical_formula_structural   Zn8Co16Ge8CO
_chemical_formula_sum   'Zn8 Co16 Ge8 C1 O1'
_cell_volume   1224.32823425
_cell_formula_units_Z   1
loop_
 _symmetry_equiv_pos_site_id
 _symmetry_equiv_pos_as_xyz
  1  'x, y, z'
  2  '-x, -y, z'
  3  '-x, y, z'
  4  'x, -y, z'
loop_
 _atom_site_type_symbol
 _atom_site_label
 _atom_site_symmetry_multiplicity
 _atom_site_fract_x
 _atom_site_fract_y
 _atom_site_fract_z
 _atom_site_occupancy
  Zn  Zn0  2  0.00000000  0.24953000  0.03603000  1.0
  Zn  Zn1  2  0.00000000  0.24996000  0.88303000  1.0
  Zn  Zn2  1  0.50000000  0.00000000  0.12343000  1.0
  Zn  Zn3  1  0.50000000  0.00000000  0.96101000  1.0
  Zn  Zn4  1  0.50000000  0.50000000  0.13021000  1.0
  Zn  Zn5  1  0.50000000  0.50000000  0.96101000  1.0
  Co  Co6  4  0.24000000  0.25413000  0.11100000  1.0
  Co  Co7  4  0.25000000  0.24996000  0.96101000  1.0
  Co  Co8  2  0.25000000  0.00000000  0.88303000  1.0
  Co  Co9  2  0.25000000  0.50000000  0.88303000  1.0
  Co  Co10  2  0.25091000  0.50000000  0.03876000  1.0
  Co  Co11  2  0.25446000  0.00000000  0.03981000  1.0
  Ge  Ge12  2  0.50000000  0.24996000  0.88303000  1.0
  Ge  Ge13  2  0.50000000  0.25281000  0.03889000  1.0
  Ge  Ge14  1  0.00000000  0.00000000  0.11853000  1.0
  Ge  Ge15  1  0.00000000  0.00000000  0.96101000  1.0
  Ge  Ge16  1  0.00000000  0.50000000  0.12087000  1.0
  Ge  Ge17  1  0.00000000  0.50000000  0.96101000  1.0
  C  C18  1  0.50000000  0.00000000  0.20088000  1.0
  O  O19  1  0.50000000  0.00000000  0.24459000  1.0
