# generated using pymatgen
data_Li8Ga4Rh4C
_symmetry_space_group_name_H-M   P1
_cell_length_a   6.03399000
_cell_length_b   6.03399000
_cell_length_c   24.52550000
_cell_angle_alpha   90.00000000
_cell_angle_beta   90.00000000
_cell_angle_gamma   90.00000000
_symmetry_Int_Tables_number   1
_chemical_formula_structural   Li8Ga4Rh4C
_chemical_formula_sum   'Li8 Ga4 Rh4 C1'
_cell_volume   892.94979574
_cell_formula_units_Z   1
loop_
 _symmetry_equiv_pos_site_id
 _symmetry_equiv_pos_as_xyz
  1  'x, y, z'
loop_
 _atom_site_type_symbol
 _atom_site_label
 _atom_site_symmetry_multiplicity
 _atom_site_fract_x
 _atom_site_fract_y
 _atom_site_fract_z
 _atom_site_occupancy
  Li  Li0  1  0.00000000  0.00000000  0.96925000  1.0
  Li  Li1  1  0.00669000  0.50677000  0.11036000  1.0
  Li  Li2  1  0.25000000  0.25000000  0.90774000  1.0
  Li  Li3  1  0.25112000  0.74890000  0.03476000  1.0
  Li  Li4  1  0.49358000  0.99299000  0.11036000  1.0
  Li  Li5  1  0.50000000  0.50000000  0.96925000  1.0
  Li  Li6  1  0.75000000  0.75000000  0.90774000  1.0
  Li  Li7  1  0.75008000  0.24990000  0.02417000  1.0
  Ga  Ga8  1  0.25000000  0.75000000  0.90774000  1.0
  Ga  Ga9  1  0.25070000  0.25057000  0.03326000  1.0
  Ga  Ga10  1  0.74961000  0.74940000  0.03309000  1.0
  Ga  Ga11  1  0.75000000  0.25000000  0.90774000  1.0
  Rh  Rh12  1  0.00000000  0.50000000  0.96925000  1.0
  Rh  Rh13  1  0.50000000  0.00000000  0.96925000  1.0
  Rh  Rh14  1  0.54283000  0.45691000  0.09171000  1.0
  Rh  Rh15  1  0.95843000  0.04177000  0.09133000  1.0
  C  C16  1  0.75086000  0.24906000  0.11214000  1.0
