# generated using pymatgen
data_Ga16Ru16C
_symmetry_space_group_name_H-M   'P 1'
_cell_length_a   8.58941000
_cell_length_b   6.07363000
_cell_length_c   26.44210000
_cell_angle_alpha   90.00000000
_cell_angle_beta   90.00000000
_cell_angle_gamma   90.00000000
_symmetry_Int_Tables_number   1
_chemical_formula_structural   Ga16Ru16C
_chemical_formula_sum   'Ga16 Ru16 C1'
_cell_volume   1379.45522464
_cell_formula_units_Z   1
loop_
 _symmetry_equiv_pos_site_id
 _symmetry_equiv_pos_as_xyz
  1  'x, y, z'
loop_
 _atom_site_type_symbol
 _atom_site_label
 _atom_site_symmetry_multiplicity
 _atom_site_fract_x
 _atom_site_fract_y
 _atom_site_fract_z
 _atom_site_occupancy
  Ga  Ga0  1  0.75000000  0.00000000  0.12181000  1.0
  Ga  Ga1  1  0.00000000  1.00000000  0.04060000  1.0
  Ga  Ga2  1  0.74985000  0.00349000  0.95926000  1.0
  Ga  Ga3  1  0.00000000  0.94951000  0.87898000  1.0
  Ga  Ga4  1  0.25000000  0.00000000  0.12181000  1.0
  Ga  Ga5  1  0.50000000  1.00000000  0.04060000  1.0
  Ga  Ga6  1  0.25015000  0.00349000  0.95926000  1.0
  Ga  Ga7  1  0.50000000  0.01423000  0.87416000  1.0
  Ga  Ga8  1  0.75000000  0.50000000  0.12181000  1.0
  Ga  Ga9  1  0.00000000  0.50000000  0.04060000  1.0
  Ga  Ga10  1  0.74984000  0.49601000  0.95925000  1.0
  Ga  Ga11  1  0.00000000  0.54931000  0.87897000  1.0
  Ga  Ga12  1  0.25000000  0.50000000  0.12181000  1.0
  Ga  Ga13  1  0.50000000  0.50000000  0.04060000  1.0
  Ga  Ga14  1  0.25016000  0.49601000  0.95925000  1.0
  Ga  Ga15  1  0.50000000  0.48540000  0.87415000  1.0
  Ru  Ru16  1  0.00000000  0.25000000  0.12181000  1.0
  Ru  Ru17  1  0.75000000  0.25000000  0.04060000  1.0
  Ru  Ru18  1  0.00000000  0.24991000  0.96074000  1.0
  Ru  Ru19  1  0.78403000  0.24962000  0.87424000  1.0
  Ru  Ru20  1  0.50000000  0.25000000  0.12181000  1.0
  Ru  Ru21  1  0.25000000  0.25000000  0.04060000  1.0
  Ru  Ru22  1  0.50000000  0.24990000  0.95787000  1.0
  Ru  Ru23  1  0.21597000  0.24962000  0.87424000  1.0
  Ru  Ru24  1  0.00000000  0.75000000  0.12181000  1.0
  Ru  Ru25  1  0.75000000  0.75000000  0.04060000  1.0
  Ru  Ru26  1  0.00000000  0.74987000  0.96347000  1.0
  Ru  Ru27  1  0.73392000  0.74972000  0.88159000  1.0
  Ru  Ru28  1  0.50000000  0.75000000  0.12181000  1.0
  Ru  Ru29  1  0.25000000  0.75000000  0.04060000  1.0
  Ru  Ru30  1  0.50000000  0.74996000  0.96248000  1.0
  Ru  Ru31  1  0.26608000  0.74972000  0.88159000  1.0
  C  C32  1  0.00000000  0.24919000  0.84981000  1.0
