# generated using pymatgen
data_Ga16Ru16C
_symmetry_space_group_name_H-M   Pm
_cell_length_a   6.07363000
_cell_length_b   8.58941000
_cell_length_c   26.44210000
_cell_angle_alpha   90.00000000
_cell_angle_beta   90.00000000
_cell_angle_gamma   90.00000000
_symmetry_Int_Tables_number   6
_chemical_formula_structural   Ga16Ru16C
_chemical_formula_sum   'Ga16 Ru16 C1'
_cell_volume   1379.45522464
_cell_formula_units_Z   1
loop_
 _symmetry_equiv_pos_site_id
 _symmetry_equiv_pos_as_xyz
  1  'x, y, z'
  2  'x, -y, z'
loop_
 _atom_site_type_symbol
 _atom_site_label
 _atom_site_symmetry_multiplicity
 _atom_site_fract_x
 _atom_site_fract_y
 _atom_site_fract_z
 _atom_site_occupancy
  Ga  Ga0  2  0.00000000  0.25000000  0.87819000  1.0
  Ga  Ga1  2  0.00349000  0.25015000  0.04074000  1.0
  Ga  Ga2  2  0.49601000  0.25016000  0.04075000  1.0
  Ga  Ga3  2  0.50000000  0.25000000  0.87819000  1.0
  Ga  Ga4  1  -0.00000000  0.50000000  0.95940000  1.0
  Ga  Ga5  1  -0.00000000  0.00000000  0.95940000  1.0
  Ga  Ga6  1  0.01423000  0.50000000  0.12584000  1.0
  Ga  Ga7  1  0.48540000  0.50000000  0.12585000  1.0
  Ga  Ga8  1  0.50000000  0.00000000  0.95940000  1.0
  Ga  Ga9  1  0.50000000  0.50000000  0.95940000  1.0
  Ga  Ga10  1  0.54931000  0.00000000  0.12103000  1.0
  Ga  Ga11  1  0.94951000  0.00000000  0.12102000  1.0
  Ru  Ru12  2  0.24962000  0.21597000  0.12576000  1.0
  Ru  Ru13  2  0.25000000  0.25000000  0.95940000  1.0
  Ru  Ru14  2  0.74972000  0.26608000  0.11841000  1.0
  Ru  Ru15  2  0.75000000  0.25000000  0.95940000  1.0
  Ru  Ru16  1  0.24990000  0.50000000  0.04213000  1.0
  Ru  Ru17  1  0.24991000  0.00000000  0.03926000  1.0
  Ru  Ru18  1  0.25000000  0.00000000  0.87819000  1.0
  Ru  Ru19  1  0.25000000  0.50000000  0.87819000  1.0
  Ru  Ru20  1  0.74987000  0.00000000  0.03653000  1.0
  Ru  Ru21  1  0.74996000  0.50000000  0.03752000  1.0
  Ru  Ru22  1  0.75000000  0.00000000  0.87819000  1.0
  Ru  Ru23  1  0.75000000  0.50000000  0.87819000  1.0
  C  C24  1  0.24919000  0.00000000  0.15019000  1.0
