data_image0
_chemical_formula_structural       ZnPdZnPdZnPdZnPdZnPdZnPdZnPdZnPdZnPdZnPdZnPdZnPdZnPdZnPdZnPdZnPdC
_chemical_formula_sum              "Zn16 Pd16 C1"
_cell_length_a       8.19602
_cell_length_b       6.89988
_cell_length_c       26.147
_cell_angle_alpha    90
_cell_angle_beta     90
_cell_angle_gamma    90

_space_group_name_H-M_alt    "P 1"
_space_group_IT_number       1

loop_
  _space_group_symop_operation_xyz
  'x, y, z'

loop_
  _atom_site_type_symbol
  _atom_site_label
  _atom_site_symmetry_multiplicity
  _atom_site_fract_x
  _atom_site_fract_y
  _atom_site_fract_z
  _atom_site_occupancy
  Zn  Zn1       1.0  0.25000  0.25000  0.88245  1.0000
  Pd  Pd1       1.0  0.00000  0.00000  0.88245  1.0000
  Zn  Zn2       1.0  0.50000  0.25000  0.96082  1.0000
  Pd  Pd2       1.0  0.25000  0.00000  0.96082  1.0000
  Zn  Zn3       1.0  0.25000  0.25000  0.03918  1.0000
  Pd  Pd3       1.0  0.50000  0.00000  0.03918  1.0000
  Zn  Zn4       1.0  0.50000  0.25000  0.11755  1.0000
  Pd  Pd4       1.0  0.25000  0.00000  0.11755  1.0000
  Zn  Zn5       1.0  0.25000  0.75000  0.88245  1.0000
  Pd  Pd5       1.0  0.00000  0.50000  0.88245  1.0000
  Zn  Zn6       1.0  0.50000  0.75000  0.96082  1.0000
  Pd  Pd6       1.0  0.25000  0.50000  0.96082  1.0000
  Zn  Zn7       1.0  0.25000  0.75000  0.03918  1.0000
  Pd  Pd7       1.0  0.50000  0.50000  0.03918  1.0000
  Zn  Zn8       1.0  0.50000  0.75000  0.11755  1.0000
  Pd  Pd8       1.0  0.25000  0.50000  0.11755  1.0000
  Zn  Zn9       1.0  0.75000  0.25000  0.88245  1.0000
  Pd  Pd9       1.0  0.50000  0.00000  0.88245  1.0000
  Zn  Zn10      1.0  1.00000  0.25000  0.96082  1.0000
  Pd  Pd10      1.0  0.75000  0.00000  0.96082  1.0000
  Zn  Zn11      1.0  0.75000  0.25000  0.03918  1.0000
  Pd  Pd11      1.0  1.00000  0.00000  0.03918  1.0000
  Zn  Zn12      1.0  1.00000  0.25000  0.11755  1.0000
  Pd  Pd12      1.0  0.75000  0.00000  0.11755  1.0000
  Zn  Zn13      1.0  0.75000  0.75000  0.88245  1.0000
  Pd  Pd13      1.0  0.50000  0.50000  0.88245  1.0000
  Zn  Zn14      1.0  1.00000  0.75000  0.96082  1.0000
  Pd  Pd14      1.0  0.75000  0.50000  0.96082  1.0000
  Zn  Zn15      1.0  0.75000  0.75000  0.03918  1.0000
  Pd  Pd15      1.0  1.00000  0.50000  0.03918  1.0000
  Zn  Zn16      1.0  1.00000  0.75000  0.11755  1.0000
  Pd  Pd16      1.0  0.75000  0.50000  0.11755  1.0000
  C   C1        1.0  0.25000  0.25000  0.14814  1.0000
