# generated using pymatgen
data_Li8Ga4Au4CO
_symmetry_space_group_name_H-M   'P 1'
_cell_length_a   6.29417000
_cell_length_b   6.29417000
_cell_length_c   24.72060000
_cell_angle_alpha   90.00000000
_cell_angle_beta   90.00000000
_cell_angle_gamma   90.00000000
_symmetry_Int_Tables_number   1
_chemical_formula_structural   Li8Ga4Au4CO
_chemical_formula_sum   'Li8 Ga4 Au4 C1 O1'
_cell_volume   979.34552839
_cell_formula_units_Z   1
loop_
 _symmetry_equiv_pos_site_id
 _symmetry_equiv_pos_as_xyz
  1  'x, y, z'
loop_
 _atom_site_type_symbol
 _atom_site_label
 _atom_site_symmetry_multiplicity
 _atom_site_fract_x
 _atom_site_fract_y
 _atom_site_fract_z
 _atom_site_occupancy
  Li  Li0  1  0.99999000  0.00001000  0.96800000  1
  Li  Li1  1  0.00000000  0.50000000  0.09548000  1
  Li  Li2  1  0.50000000  1.00000000  0.09548000  1
  Li  Li3  1  0.49968000  0.50032000  0.96658000  1
  Li  Li4  1  0.24739000  0.75261000  0.88930000  1
  Li  Li5  1  0.75000000  0.75000000  0.03183000  1
  Li  Li6  1  0.75403000  0.24597000  0.89033000  1
  Li  Li7  1  0.25000000  0.25000000  0.03183000  1
  Ga  Ga8  1  0.00000000  0.00000000  0.09548000  1
  Ga  Ga9  1  0.50000000  0.50000000  0.09548000  1
  Ga  Ga10  1  0.99752000  0.49955000  0.96780000  1
  Ga  Ga11  1  0.50045000  0.00248000  0.96780000  1
  Au  Au12  1  0.25000000  0.75000000  0.03183000  1
  Au  Au13  1  0.75034000  0.75264000  0.91018000  1
  Au  Au14  1  0.75000000  0.25000000  0.03183000  1
  Au  Au15  1  0.24736000  0.24966000  0.91018000  1
  C  C16  1  0.24839000  0.75161000  0.80341000  1
  O  O17  1  0.24853500  0.75146500  0.75734000  1
