# generated using pymatgen
data_Li8Mg8Ga8Pt8CO
_symmetry_space_group_name_H-M   Pm
_cell_length_a   6.26200000
_cell_length_b   8.85580000
_cell_length_c   26.64190000
_cell_angle_alpha   90.00000000
_cell_angle_beta   90.00000000
_cell_angle_gamma   90.00000000
_symmetry_Int_Tables_number   6
_chemical_formula_structural   Li8Mg8Ga8Pt8CO
_chemical_formula_sum   'Li8 Mg8 Ga8 Pt8 C1 O1'
_cell_volume   1477.42708668
_cell_formula_units_Z   1
loop_
 _symmetry_equiv_pos_site_id
 _symmetry_equiv_pos_as_xyz
  1  'x, y, z'
  2  'x, -y, z'
loop_
 _atom_site_type_symbol
 _atom_site_label
 _atom_site_symmetry_multiplicity
 _atom_site_fract_x
 _atom_site_fract_y
 _atom_site_fract_z
 _atom_site_occupancy
  Li  Li0  2  0.25000000  0.25001000  0.95845000  1.0
  Li  Li1  2  0.27964000  0.25012000  0.13116000  1.0
  Li  Li2  1  0.74956000  0.50000000  0.04174000  1.0
  Li  Li3  1  0.75000000  0.00000000  0.87535000  1.0
  Li  Li4  1  0.75000000  0.50000000  0.87535000  1.0
  Li  Li5  1  0.76410000  0.00000000  0.04182000  1.0
  Mg  Mg6  2  0.49055000  0.24643000  0.03902000  1.0
  Mg  Mg7  2  0.50000000  0.24999000  0.87535000  1.0
  Mg  Mg8  1  0.00000000  0.00000000  0.95845000  1.0
  Mg  Mg9  1  0.00000000  0.50000000  0.95845000  1.0
  Mg  Mg10  1  0.97809000  0.00000000  0.13304000  1.0
  Mg  Mg11  1  0.98720000  0.50000000  0.13019000  1.0
  Ga  Ga12  2  0.00000000  0.25001000  0.87535000  1.0
  Ga  Ga13  2  0.00402000  0.25139000  0.04379000  1.0
  Ga  Ga14  1  0.50000000  0.00000000  0.95845000  1.0
  Ga  Ga15  1  0.50000000  0.50000000  0.95845000  1.0
  Ga  Ga16  1  0.51578000  0.50000000  0.12705000  1.0
  Ga  Ga17  1  0.51994000  0.00000000  0.12473000  1.0
  Pt  Pt18  2  0.73511000  0.25242000  0.11791000  1.0
  Pt  Pt19  2  0.75000000  0.25001000  0.95845000  1.0
  Pt  Pt20  1  0.23753000  0.00000000  0.04756000  1.0
  Pt  Pt21  1  0.24644000  0.50000000  0.04234000  1.0
  Pt  Pt22  1  0.25000000  0.00000000  0.87535000  1.0
  Pt  Pt23  1  0.25000000  0.50000000  0.87535000  1.0
  C  C24  1  0.05680000  0.00000000  0.21591000  1.0
  O  O25  1  0.07975000  0.00000000  0.25855000  1.0
