# generated using pymatgen
data_Sc8In8Ag8Pd8CO
_symmetry_space_group_name_H-M   Pm
_cell_length_a   6.71273000
_cell_length_b   9.49324000
_cell_length_c   27.11990000
_cell_angle_alpha   90.00000000
_cell_angle_beta   90.00000000
_cell_angle_gamma   90.00000000
_symmetry_Int_Tables_number   6
_chemical_formula_structural   Sc8In8Ag8Pd8CO
_chemical_formula_sum   'Sc8 In8 Ag8 Pd8 C1 O1'
_cell_volume   1728.23073180
_cell_formula_units_Z   1
loop_
 _symmetry_equiv_pos_site_id
 _symmetry_equiv_pos_as_xyz
  1  'x, y, z'
  2  'x, -y, z'
loop_
 _atom_site_type_symbol
 _atom_site_label
 _atom_site_symmetry_multiplicity
 _atom_site_fract_x
 _atom_site_fract_y
 _atom_site_fract_z
 _atom_site_occupancy
  Sc  Sc0  2  0.74409000  0.25503000  0.12786000  1.0
  Sc  Sc1  2  0.75000000  0.25000000  0.95624000  1.0
  Sc  Sc2  1  0.24980000  0.00000000  0.04705000  1.0
  Sc  Sc3  1  0.25000000  0.00000000  0.86873000  1.0
  Sc  Sc4  1  0.25000000  0.50000000  0.86873000  1.0
  Sc  Sc5  1  0.26007000  0.50000000  0.04764000  1.0
  In  In6  2  0.24079000  0.24795000  0.13520000  1.0
  In  In7  2  0.25000000  0.25000000  0.95624000  1.0
  In  In8  1  0.74268000  0.50000000  0.04457000  1.0
  In  In9  1  0.75000000  0.00000000  0.86873000  1.0
  In  In10  1  0.75000000  0.50000000  0.86873000  1.0
  In  In11  1  0.75434000  0.00000000  0.04537000  1.0
  Ag  Ag12  2  0.00000000  0.25000000  0.86873000  1.0
  Ag  Ag13  2  0.00377000  0.25212000  0.04382000  1.0
  Ag  Ag14  1  0.48309000  0.50000000  0.14367000  1.0
  Ag  Ag15  1  0.49375000  0.00000000  0.13603000  1.0
  Ag  Ag16  1  0.50000000  0.00000000  0.95624000  1.0
  Ag  Ag17  1  0.50000000  0.50000000  0.95624000  1.0
  Pd  Pd18  2  0.50000000  0.25000000  0.86873000  1.0
  Pd  Pd19  2  0.50218000  0.24817000  0.04379000  1.0
  Pd  Pd20  1  0.00000000  0.00000000  0.95624000  1.0
  Pd  Pd21  1  0.00000000  0.50000000  0.95624000  1.0
  Pd  Pd22  1  0.97227000  0.00000000  0.13797000  1.0
  Pd  Pd23  1  0.99943000  0.50000000  0.12529000  1.0
  C  C24  1  0.94079000  0.00000000  0.20973000  1.0
  O  O25  1  0.94445000  0.00000000  0.25230000  1.0
