# generated using pymatgen
data_Li4Ti4Al4Pd4C
_symmetry_space_group_name_H-M   'P 1'
_cell_length_a   6.17553000
_cell_length_b   6.17553000
_cell_length_c   24.63160000
_cell_angle_alpha   90.00000000
_cell_angle_beta   90.00000000
_cell_angle_gamma   90.00000000
_symmetry_Int_Tables_number   1
_chemical_formula_structural   Li4Ti4Al4Pd4C
_chemical_formula_sum   'Li4 Ti4 Al4 Pd4 C1'
_cell_volume   939.37953581
_cell_formula_units_Z   1
loop_
 _symmetry_equiv_pos_site_id
 _symmetry_equiv_pos_as_xyz
  1  'x, y, z'
loop_
 _atom_site_type_symbol
 _atom_site_label
 _atom_site_symmetry_multiplicity
 _atom_site_fract_x
 _atom_site_fract_y
 _atom_site_fract_z
 _atom_site_occupancy
  Li  Li0  1  0.75057500  0.75057500  0.97338000  1
  Li  Li1  1  0.75000000  0.25000000  0.09402000  1
  Li  Li2  1  0.25000000  0.75000000  0.09402000  1
  Li  Li3  1  0.24975500  0.24975500  0.96010000  1
  Ti  Ti4  1  0.98002000  0.52013000  0.90343000  1
  Ti  Ti5  1  0.00000000  0.00000000  0.03134000  1
  Ti  Ti6  1  0.50000000  0.50000000  0.03134000  1
  Ti  Ti7  1  0.52013000  0.98002000  0.90343000  1
  Al  Al8  1  0.98473000  0.98473000  0.90479000  1
  Al  Al9  1  1.00000000  0.50000000  0.03134000  1
  Al  Al10  1  0.50000000  1.00000000  0.03134000  1
  Al  Al11  1  0.51565000  0.51565000  0.90482000  1
  Pd  Pd12  1  0.25002000  0.74996000  0.96652000  1
  Pd  Pd13  1  0.25000000  0.25000000  0.09402000  1
  Pd  Pd14  1  0.75000000  0.75000000  0.09402000  1
  Pd  Pd15  1  0.74996000  0.25002000  0.96652000  1
  C  C16  1  0.75038000  0.75038000  0.88709000  1
