# generated using pymatgen
data_Li4Ti4Al4Pd4C
_symmetry_space_group_name_H-M   Cm
_cell_length_a   8.73351828
_cell_length_b   8.73351828
_cell_length_c   24.63160000
_cell_angle_alpha   90.00000000
_cell_angle_beta   90.00000000
_cell_angle_gamma   90.00000000
_symmetry_Int_Tables_number   8
_chemical_formula_structural   Li4Ti4Al4Pd4C
_chemical_formula_sum   'Li8 Ti8 Al8 Pd8 C2'
_cell_volume   1878.75907161
_cell_formula_units_Z   2
loop_
 _symmetry_equiv_pos_site_id
 _symmetry_equiv_pos_as_xyz
  1  'x, y, z'
  2  'x, -y, z'
  3  'x+1/2, y+1/2, z'
  4  'x+1/2, -y+1/2, z'
loop_
 _atom_site_type_symbol
 _atom_site_label
 _atom_site_symmetry_multiplicity
 _atom_site_fract_x
 _atom_site_fract_y
 _atom_site_fract_z
 _atom_site_occupancy
  Li  Li0  4  0.00000000  0.25000000  0.90598000  1.0
  Li  Li1  2  0.24975500  0.00000000  0.03990000  1.0
  Li  Li2  2  0.25057500  0.50000000  0.02662000  1.0
  Ti  Ti3  4  0.25007500  0.27005500  0.09657000  1.0
  Ti  Ti4  2  0.00000000  0.00000000  0.96866000  1.0
  Ti  Ti5  2  0.00000000  0.50000000  0.96866000  1.0
  Al  Al6  4  0.25000000  0.25000000  0.96866000  1.0
  Al  Al7  2  0.01565000  0.50000000  0.09518000  1.0
  Al  Al8  2  0.48473000  0.50000000  0.09521000  1.0
  Pd  Pd9  4  0.49999000  0.24997000  0.03348000  1.0
  Pd  Pd10  2  0.25000000  0.00000000  0.90598000  1.0
  Pd  Pd11  2  0.25000000  0.50000000  0.90598000  1.0
  C  C12  2  0.25038000  0.50000000  0.11291000  1.0
