# generated using pymatgen
data_Mg24In8C
_symmetry_space_group_name_H-M   Pmm2
_cell_length_a   9.03947000
_cell_length_b   9.03947000
_cell_length_c   26.77960000
_cell_angle_alpha   90.00000000
_cell_angle_beta   90.00000000
_cell_angle_gamma   90.00000000
_symmetry_Int_Tables_number   25
_chemical_formula_structural   Mg24In8C
_chemical_formula_sum   'Mg24 In8 C1'
_cell_volume   2188.21515404
_cell_formula_units_Z   1
loop_
 _symmetry_equiv_pos_site_id
 _symmetry_equiv_pos_as_xyz
  1  'x, y, z'
  2  '-x, -y, z'
  3  '-x, y, z'
  4  'x, -y, z'
loop_
 _atom_site_type_symbol
 _atom_site_label
 _atom_site_symmetry_multiplicity
 _atom_site_fract_x
 _atom_site_fract_y
 _atom_site_fract_z
 _atom_site_occupancy
  Mg  Mg0  4  0.25000000  0.25000000  0.04219000  1.0
  Mg  Mg1  4  0.25000000  0.25000000  0.87342000  1.0
  Mg  Mg2  2  0.00000000  0.25000000  0.12658000  1.0
  Mg  Mg3  2  0.00000000  0.25000000  0.95781000  1.0
  Mg  Mg4  2  0.50000000  0.25000000  0.12658000  1.0
  Mg  Mg5  2  0.50000000  0.25000000  0.95781000  1.0
  Mg  Mg6  1  0.00000000  0.00000000  0.04219000  1.0
  Mg  Mg7  1  0.00000000  0.00000000  0.87342000  1.0
  Mg  Mg8  1  0.00000000  0.50000000  0.04219000  1.0
  Mg  Mg9  1  0.00000000  0.50000000  0.87342000  1.0
  Mg  Mg10  1  0.50000000  0.00000000  0.04219000  1.0
  Mg  Mg11  1  0.50000000  0.00000000  0.87342000  1.0
  Mg  Mg12  1  0.50000000  0.50000000  0.04219000  1.0
  Mg  Mg13  1  0.50000000  0.50000000  0.87342000  1.0
  In  In14  2  0.25000000  0.00000000  0.12658000  1.0
  In  In15  2  0.25000000  0.00000000  0.95781000  1.0
  In  In16  2  0.25000000  0.50000000  0.12658000  1.0
  In  In17  2  0.25000000  0.50000000  0.95781000  1.0
  C  C18  1  0.00000000  0.00000000  0.15645000  1.0
