# generated using pymatgen
data_Na24As8C
_symmetry_space_group_name_H-M   P1
_cell_length_a   7.20118000
_cell_length_b   10.18400000
_cell_length_c   27.63800000
_cell_angle_alpha   90.00000000
_cell_angle_beta   90.00000000
_cell_angle_gamma   90.00000000
_symmetry_Int_Tables_number   1
_chemical_formula_structural   Na24As8C
_chemical_formula_sum   'Na24 As8 C1'
_cell_volume   2026.88295156
_cell_formula_units_Z   1
loop_
 _symmetry_equiv_pos_site_id
 _symmetry_equiv_pos_as_xyz
  1  'x, y, z'
loop_
 _atom_site_type_symbol
 _atom_site_label
 _atom_site_symmetry_multiplicity
 _atom_site_fract_x
 _atom_site_fract_y
 _atom_site_fract_z
 _atom_site_occupancy
  Na  Na0  1  0.00000000  0.25000000  0.95394000  1.0
  Na  Na1  1  0.00000000  0.75000000  0.95394000  1.0
  Na  Na2  1  0.00015000  0.27827000  0.20191000  1.0
  Na  Na3  1  0.18413000  0.00000000  0.14321000  1.0
  Na  Na4  1  0.22539000  0.75563000  0.05406000  1.0
  Na  Na5  1  0.22549000  0.24435000  0.05408000  1.0
  Na  Na6  1  0.25000000  0.00000000  0.95394000  1.0
  Na  Na7  1  0.25000000  0.25000000  0.86182000  1.0
  Na  Na8  1  0.25000000  0.50000000  0.95394000  1.0
  Na  Na9  1  0.25000000  0.75000000  0.86182000  1.0
  Na  Na10  1  0.25409000  0.50004000  0.14066000  1.0
  Na  Na11  1  0.49981000  0.49974000  0.03701000  1.0
  Na  Na12  1  0.50000000  0.00000000  0.86182000  1.0
  Na  Na13  1  0.50000000  0.50000000  0.86182000  1.0
  Na  Na14  1  0.50013000  0.99993000  0.04013000  1.0
  Na  Na15  1  0.74611000  0.49986000  0.14061000  1.0
  Na  Na16  1  0.75000000  0.00000000  0.95394000  1.0
  Na  Na17  1  0.75000000  0.25000000  0.86182000  1.0
  Na  Na18  1  0.75000000  0.50000000  0.95394000  1.0
  Na  Na19  1  0.75000000  0.75000000  0.86182000  1.0
  Na  Na20  1  0.77453000  0.24435000  0.05405000  1.0
  Na  Na21  1  0.77465000  0.75562000  0.05405000  1.0
  Na  Na22  1  0.81588000  0.00007000  0.14315000  1.0
  Na  Na23  1  0.99977000  0.72174000  0.20189000  1.0
  As  As24  1  0.00000000  0.00000000  0.86182000  1.0
  As  As25  1  0.00000000  0.50000000  0.86182000  1.0
  As  As26  1  0.00013000  0.50000000  0.04891000  1.0
  As  As27  1  0.49986000  0.17685000  0.13607000  1.0
  As  As28  1  0.50000000  0.25000000  0.95394000  1.0
  As  As29  1  0.50000000  0.75000000  0.95394000  1.0
  As  As30  1  0.50011000  0.82330000  0.13605000  1.0
  As  As31  1  0.99981000  0.99970000  0.04300000  1.0
  C  C32  1  0.49998000  0.00008000  0.13773000  1.0
