# generated using pymatgen
data_Li8Sb4Pt4C
_symmetry_space_group_name_H-M   Cmm2
_cell_length_a   9.05843385
_cell_length_b   9.05843385
_cell_length_c   24.80400000
_cell_angle_alpha   90.00000000
_cell_angle_beta   90.00000000
_cell_angle_gamma   90.00000000
_symmetry_Int_Tables_number   35
_chemical_formula_structural   Li8Sb4Pt4C
_chemical_formula_sum   'Li16 Sb8 Pt8 C2'
_cell_volume   2035.29777006
_cell_formula_units_Z   2
loop_
 _symmetry_equiv_pos_site_id
 _symmetry_equiv_pos_as_xyz
  1  'x, y, z'
  2  '-x, -y, z'
  3  '-x, y, z'
  4  'x, -y, z'
  5  'x+1/2, y+1/2, z'
  6  '-x+1/2, -y+1/2, z'
  7  '-x+1/2, y+1/2, z'
  8  'x+1/2, -y+1/2, z'
loop_
 _atom_site_type_symbol
 _atom_site_label
 _atom_site_symmetry_multiplicity
 _atom_site_fract_x
 _atom_site_fract_y
 _atom_site_fract_z
 _atom_site_occupancy
  Li  Li0  4  0.00000000  0.25000000  0.96772000  1.0
  Li  Li1  4  0.24515500  0.50000000  0.11171000  1.0
  Li  Li2  4  0.25000000  0.25000000  0.03843000  1.0
  Li  Li3  2  0.00000000  0.00000000  0.90316000  1.0
  Li  Li4  2  0.00000000  0.50000000  0.90316000  1.0
  Sb  Sb5  4  0.00000000  0.24119000  0.10821000  1.0
  Sb  Sb6  4  0.25000000  0.00000000  0.96772000  1.0
  Pt  Pt7  4  0.25000000  0.25000000  0.90316000  1.0
  Pt  Pt8  2  0.00000000  0.00000000  0.03377000  1.0
  Pt  Pt9  2  0.00000000  0.50000000  0.03379000  1.0
  C  C10  2  0.00000000  0.50000000  0.11387000  1.0
