# generated using pymatgen
data_Li8In16Pd8CO
_symmetry_space_group_name_H-M   'P 1'
_cell_length_a   9.48324000
_cell_length_b   6.70566000
_cell_length_c   27.11240000
_cell_angle_alpha   90.00000000
_cell_angle_beta   90.00000000
_cell_angle_gamma   90.00000000
_symmetry_Int_Tables_number   1
_chemical_formula_structural   Li8In16Pd8CO
_chemical_formula_sum   'Li8 In16 Pd8 C1 O1'
_cell_volume   1724.11501620
_cell_formula_units_Z   1
loop_
 _symmetry_equiv_pos_site_id
 _symmetry_equiv_pos_as_xyz
  1  'x, y, z'
loop_
 _atom_site_type_symbol
 _atom_site_label
 _atom_site_symmetry_multiplicity
 _atom_site_fract_x
 _atom_site_fract_y
 _atom_site_fract_z
 _atom_site_occupancy
  Li  Li0  1  0.00000000  0.00000000  0.13117000  1.0
  Li  Li1  1  0.24998000  0.50000000  0.04372000  1.0
  Li  Li2  1  0.75002000  0.50000000  0.04372000  1.0
  Li  Li3  1  0.50000000  1.00000000  0.13117000  1.0
  Li  Li4  1  0.50000000  0.99448000  0.95175000  1.0
  Li  Li5  1  0.74901000  0.51871000  0.85730000  1.0
  Li  Li6  1  0.25099000  0.51871000  0.85730000  1.0
  Li  Li7  1  0.00000000  0.99052000  0.95357000  1.0
  In  In8  1  0.00000000  0.25000000  0.04372000  1.0
  In  In9  1  0.50000000  0.75000000  0.04372000  1.0
  In  In10  1  0.00000000  0.75000000  0.04372000  1.0
  In  In11  1  0.50000000  0.25000000  0.04372000  1.0
  In  In12  1  0.74998000  0.75000000  0.13117000  1.0
  In  In13  1  0.24998000  0.25000000  0.13117000  1.0
  In  In14  1  0.75002000  0.25000000  0.13117000  1.0
  In  In15  1  0.25002000  0.75000000  0.13117000  1.0
  In  In16  1  0.50000000  0.25955000  0.86343000  1.0
  In  In17  1  0.00000000  0.77584000  0.85367000  1.0
  In  In18  1  0.50000000  0.77583000  0.85110000  1.0
  In  In19  1  0.00000000  0.26480000  0.86450000  1.0
  In  In20  1  0.25194000  0.73913000  0.95300000  1.0
  In  In21  1  0.75070000  0.25540000  0.95381000  1.0
  In  In22  1  0.24930000  0.25540000  0.95381000  1.0
  In  In23  1  0.74806000  0.73913000  0.95300000  1.0
  Pd  Pd24  1  0.74998000  1.00000000  0.04372000  1.0
  Pd  Pd25  1  0.00000000  0.50000000  0.13117000  1.0
  Pd  Pd26  1  0.25002000  1.00000000  0.04372000  1.0
  Pd  Pd27  1  0.50000000  0.50000000  0.13117000  1.0
  Pd  Pd28  1  0.25020000  0.00203000  0.87438000  1.0
  Pd  Pd29  1  0.50000000  0.49933000  0.95863000  1.0
  Pd  Pd30  1  0.74980000  0.00203000  0.87438000  1.0
  Pd  Pd31  1  0.00000000  0.50038000  0.95990000  1.0
  C  C32  1  0.00000000  0.33234000  0.72532000  1.0
  O  O33  1  0.00000000  0.20881000  0.69657000  1.0
