# generated using pymatgen
data_Li8In16Pd8CO
_symmetry_space_group_name_H-M   Pm
_cell_length_a   6.70566000
_cell_length_b   9.48324000
_cell_length_c   27.11240000
_cell_angle_alpha   90.00000000
_cell_angle_beta   90.00000000
_cell_angle_gamma   90.00000000
_symmetry_Int_Tables_number   6
_chemical_formula_structural   Li8In16Pd8CO
_chemical_formula_sum   'Li8 In16 Pd8 C1 O1'
_cell_volume   1724.11501620
_cell_formula_units_Z   1
loop_
 _symmetry_equiv_pos_site_id
 _symmetry_equiv_pos_as_xyz
  1  'x, y, z'
  2  'x, -y, z'
loop_
 _atom_site_type_symbol
 _atom_site_label
 _atom_site_symmetry_multiplicity
 _atom_site_fract_x
 _atom_site_fract_y
 _atom_site_fract_z
 _atom_site_occupancy
  Li  Li0  2  0.50000000  0.24998000  0.95628000  1.0
  Li  Li1  2  0.51871000  0.25099000  0.14270000  1.0
  Li  Li2  1  -0.00000000  0.50000000  0.86883000  1.0
  Li  Li3  1  0.00000000  0.00000000  0.86883000  1.0
  Li  Li4  1  0.99052000  0.00000000  0.04643000  1.0
  Li  Li5  1  0.99448000  0.50000000  0.04825000  1.0
  In  In6  2  0.25000000  0.24998000  0.86883000  1.0
  In  In7  2  0.25540000  0.24930000  0.04619000  1.0
  In  In8  2  0.73913000  0.25194000  0.04700000  1.0
  In  In9  2  0.75000000  0.25002000  0.86883000  1.0
  In  In10  1  0.25000000  0.00000000  0.95628000  1.0
  In  In11  1  0.25000000  0.50000000  0.95628000  1.0
  In  In12  1  0.25955000  0.50000000  0.13657000  1.0
  In  In13  1  0.26480000  0.00000000  0.13550000  1.0
  In  In14  1  0.75000000  0.00000000  0.95628000  1.0
  In  In15  1  0.75000000  0.50000000  0.95628000  1.0
  In  In16  1  0.77583000  0.50000000  0.14890000  1.0
  In  In17  1  0.77584000  0.00000000  0.14633000  1.0
  Pd  Pd18  2  -0.00000000  0.25002000  0.95628000  1.0
  Pd  Pd19  2  0.00203000  0.25020000  0.12562000  1.0
  Pd  Pd20  1  0.49933000  0.50000000  0.04137000  1.0
  Pd  Pd21  1  0.50000000  0.00000000  0.86883000  1.0
  Pd  Pd22  1  0.50000000  0.50000000  0.86883000  1.0
  Pd  Pd23  1  0.50038000  0.00000000  0.04010000  1.0
  C  C24  1  0.33234000  0.00000000  0.27468000  1.0
  O  O25  1  0.20881000  0.00000000  0.30343000  1.0
