# generated using pymatgen
data_Li2GaPt
_symmetry_space_group_name_H-M   Pm
_cell_length_a   6.10853000
_cell_length_b   4.31938000
_cell_length_c   26.47910000
_cell_angle_alpha   90.00000000
_cell_angle_beta   90.00000000
_cell_angle_gamma   90.00000000
_symmetry_Int_Tables_number   6
_chemical_formula_structural   Li2GaPt
_chemical_formula_sum   'Li8 Ga4 Pt4'
_cell_volume   698.65270345
_cell_formula_units_Z   4
loop_
 _symmetry_equiv_pos_site_id
 _symmetry_equiv_pos_as_xyz
  1  'x, y, z'
  2  'x, -y, z'
loop_
 _atom_site_type_symbol
 _atom_site_label
 _atom_site_symmetry_multiplicity
 _atom_site_fract_x
 _atom_site_fract_y
 _atom_site_fract_z
 _atom_site_occupancy
  Li  Li0  1  0.00000000  0.50000000  0.04078000  1.0
  Li  Li1  1  0.25000000  0.00000000  0.04078000  1.0
  Li  Li2  1  0.27206000  0.00000000  0.87090000  1.0
  Li  Li3  1  0.49325500  0.00000000  0.96079000  1.0
  Li  Li4  1  0.50000000  0.00000000  0.12234000  1.0
  Li  Li5  1  0.75000000  0.50000000  0.12234000  1.0
  Li  Li6  1  0.75354000  0.50000000  0.96286000  1.0
  Li  Li7  1  0.98956000  0.50000000  0.87728000  1.0
  Ga  Ga8  1  0.24574000  0.50000000  0.95965000  1.0
  Ga  Ga9  1  0.25000000  0.50000000  0.12234000  1.0
  Ga  Ga10  1  0.73419500  0.00000000  0.87691000  1.0
  Ga  Ga11  1  0.75000000  0.00000000  0.04078000  1.0
  Pt  Pt12  1  0.00000000  0.00000000  0.12234000  1.0
  Pt  Pt13  1  0.00143000  0.00000000  0.95610500  1.0
  Pt  Pt14  1  0.50000000  0.50000000  0.04078000  1.0
  Pt  Pt15  1  0.51507000  0.50000000  0.88590000  1.0
