# generated using pymatgen
data_Y16Cu16CO
_symmetry_space_group_name_H-M   'P 1'
_cell_length_a   6.99068000
_cell_length_b   9.88632000
_cell_length_c   27.41470000
_cell_angle_alpha   90.00000000
_cell_angle_beta   90.00000000
_cell_angle_gamma   90.00000000
_symmetry_Int_Tables_number   1
_chemical_formula_structural   Y16Cu16CO
_chemical_formula_sum   'Y16 Cu16 C1 O1'
_cell_volume   1894.68747410
_cell_formula_units_Z   1
loop_
 _symmetry_equiv_pos_site_id
 _symmetry_equiv_pos_as_xyz
  1  'x, y, z'
loop_
 _atom_site_type_symbol
 _atom_site_label
 _atom_site_symmetry_multiplicity
 _atom_site_fract_x
 _atom_site_fract_y
 _atom_site_fract_z
 _atom_site_occupancy
  Y  Y0  1  0.00000000  0.75000000  0.86477000  1.0
  Y  Y1  1  0.00000000  0.00000000  0.95492000  1.0
  Y  Y2  1  0.00000000  0.75000000  0.04394000  1.0
  Y  Y3  1  0.00000000  0.00000000  0.13494000  1.0
  Y  Y4  1  0.00000000  0.25000000  0.86477000  1.0
  Y  Y5  1  0.00000000  0.50000000  0.95492000  1.0
  Y  Y6  1  0.00000000  0.25000000  0.04394000  1.0
  Y  Y7  1  0.00000000  0.50000000  0.13605000  1.0
  Y  Y8  1  0.50000000  0.75000000  0.86477000  1.0
  Y  Y9  1  0.50000000  0.00000000  0.95492000  1.0
  Y  Y10  1  0.50000000  0.74996000  0.04462000  1.0
  Y  Y11  1  0.50000000  0.00000000  0.13910000  1.0
  Y  Y12  1  0.50000000  0.25000000  0.86477000  1.0
  Y  Y13  1  0.50000000  0.50000000  0.95492000  1.0
  Y  Y14  1  0.50000000  0.25004000  0.04462000  1.0
  Y  Y15  1  0.50000000  0.50000000  0.13621000  1.0
  Cu  Cu16  1  0.25000000  0.00000000  0.86477000  1.0
  Cu  Cu17  1  0.25000000  0.75000000  0.95492000  1.0
  Cu  Cu18  1  0.26542000  0.00000000  0.04968000  1.0
  Cu  Cu19  1  0.24930000  0.25051000  0.12690000  1.0
  Cu  Cu20  1  0.25000000  0.50000000  0.86477000  1.0
  Cu  Cu21  1  0.25000000  0.25000000  0.95492000  1.0
  Cu  Cu22  1  0.24813000  0.50000000  0.04978000  1.0
  Cu  Cu23  1  0.24930000  0.74949000  0.12690000  1.0
  Cu  Cu24  1  0.75000000  0.00000000  0.86477000  1.0
  Cu  Cu25  1  0.75000000  0.75000000  0.95492000  1.0
  Cu  Cu26  1  0.73458000  0.00000000  0.04968000  1.0
  Cu  Cu27  1  0.75070000  0.25051000  0.12690000  1.0
  Cu  Cu28  1  0.75000000  0.50000000  0.86477000  1.0
  Cu  Cu29  1  0.75000000  0.25000000  0.95492000  1.0
  Cu  Cu30  1  0.75187000  0.50000000  0.04978000  1.0
  Cu  Cu31  1  0.75070000  0.74949000  0.12690000  1.0
  C  C32  1  0.00000000  0.00000000  0.22486000  1.0
  O  O33  1  0.00000000  0.00000000  0.26698000  1.0
