data_image0
_chemical_formula_structural       YCuYCuYCuYCuYCuYCuYCuYCuYCuYCuYCuYCuYCuYCuYCuYCuCO
_chemical_formula_sum              "Y16 Cu16 C1 O1"
_cell_length_a       6.99068
_cell_length_b       9.88632
_cell_length_c       27.4147
_cell_angle_alpha    90
_cell_angle_beta     90
_cell_angle_gamma    90

_space_group_name_H-M_alt    "P 1"
_space_group_IT_number       1

loop_
  _space_group_symop_operation_xyz
  'x, y, z'

loop_
  _atom_site_type_symbol
  _atom_site_label
  _atom_site_symmetry_multiplicity
  _atom_site_fract_x
  _atom_site_fract_y
  _atom_site_fract_z
  _atom_site_occupancy
  Y   Y1        1.0  0.00000  0.00000  0.86477  1.0000
  Cu  Cu1       1.0  0.25000  0.25000  0.86477  1.0000
  Y   Y2        1.0  0.00000  0.25000  0.95492  1.0000
  Cu  Cu2       1.0  0.25000  0.00000  0.95492  1.0000
  Y   Y3        1.0  0.00000  0.00000  0.04508  1.0000
  Cu  Cu3       1.0  0.25000  0.25000  0.04508  1.0000
  Y   Y4        1.0  0.00000  0.25000  0.13523  1.0000
  Cu  Cu4       1.0  0.25000  0.50000  0.13523  1.0000
  Y   Y5        1.0  0.00000  0.50000  0.86477  1.0000
  Cu  Cu5       1.0  0.25000  0.75000  0.86477  1.0000
  Y   Y6        1.0  0.00000  0.75000  0.95492  1.0000
  Cu  Cu6       1.0  0.25000  0.50000  0.95492  1.0000
  Y   Y7        1.0  0.00000  0.50000  0.04508  1.0000
  Cu  Cu7       1.0  0.25000  0.75000  0.04508  1.0000
  Y   Y8        1.0  0.00000  0.75000  0.13523  1.0000
  Cu  Cu8       1.0  0.25000  1.00000  0.13523  1.0000
  Y   Y9        1.0  0.50000  0.00000  0.86477  1.0000
  Cu  Cu9       1.0  0.75000  0.25000  0.86477  1.0000
  Y   Y10       1.0  0.50000  0.25000  0.95492  1.0000
  Cu  Cu10      1.0  0.75000  0.00000  0.95492  1.0000
  Y   Y11       1.0  0.50000  0.00000  0.04508  1.0000
  Cu  Cu11      1.0  0.75000  0.25000  0.04508  1.0000
  Y   Y12       1.0  0.50000  0.25000  0.13523  1.0000
  Cu  Cu12      1.0  0.75000  0.50000  0.13523  1.0000
  Y   Y13       1.0  0.50000  0.50000  0.86477  1.0000
  Cu  Cu13      1.0  0.75000  0.75000  0.86477  1.0000
  Y   Y14       1.0  0.50000  0.75000  0.95492  1.0000
  Cu  Cu14      1.0  0.75000  0.50000  0.95492  1.0000
  Y   Y15       1.0  0.50000  0.50000  0.04508  1.0000
  Cu  Cu15      1.0  0.75000  0.75000  0.04508  1.0000
  Y   Y16       1.0  0.50000  0.75000  0.13523  1.0000
  Cu  Cu16      1.0  0.75000  1.00000  0.13523  1.0000
  C   C1        1.0  0.00000  0.25000  0.20454  1.0000
  O   O1        1.0  0.00000  0.25000  0.24649  1.0000
