# generated using pymatgen
data_Y8Ga8Cu8Pd8C
_symmetry_space_group_name_H-M   Pm
_cell_length_a   6.59466000
_cell_length_b   9.32626000
_cell_length_c   26.99470000
_cell_angle_alpha   90.00000000
_cell_angle_beta   90.00000000
_cell_angle_gamma   90.00000000
_symmetry_Int_Tables_number   6
_chemical_formula_structural   Y8Ga8Cu8Pd8C
_chemical_formula_sum   'Y8 Ga8 Cu8 Pd8 C1'
_cell_volume   1660.26890321
_cell_formula_units_Z   1
loop_
 _symmetry_equiv_pos_site_id
 _symmetry_equiv_pos_as_xyz
  1  'x, y, z'
  2  'x, -y, z'
loop_
 _atom_site_type_symbol
 _atom_site_label
 _atom_site_symmetry_multiplicity
 _atom_site_fract_x
 _atom_site_fract_y
 _atom_site_fract_z
 _atom_site_occupancy
  Y  Y0  2  0.25000000  0.24999000  0.87044000  1.0
  Y  Y1  2  0.27851000  0.24843000  0.05390000  1.0
  Y  Y2  1  0.75000000  0.00000000  0.95681000  1.0
  Y  Y3  1  0.75000000  0.50000000  0.95681000  1.0
  Y  Y4  1  0.92262000  0.50000000  0.13666000  1.0
  Y  Y5  1  0.94662000  0.00000000  0.13206000  1.0
  Ga  Ga6  2  0.75000000  0.24999000  0.87044000  1.0
  Ga  Ga7  2  0.77224000  0.24626000  0.03894000  1.0
  Ga  Ga8  1  0.25000000  0.00000000  0.95681000  1.0
  Ga  Ga9  1  0.25000000  0.50000000  0.95681000  1.0
  Ga  Ga10  1  0.39098000  0.50000000  0.14009000  1.0
  Ga  Ga11  1  0.40876000  0.00000000  0.14801000  1.0
  Cu  Cu12  2  0.50000000  0.25001000  0.95681000  1.0
  Cu  Cu13  2  0.61217000  0.25018000  0.12611000  1.0
  Cu  Cu14  1  0.00000000  0.00000000  0.87044000  1.0
  Cu  Cu15  1  0.00000000  0.50000000  0.87044000  1.0
  Cu  Cu16  1  0.00712000  0.00000000  0.03329000  1.0
  Cu  Cu17  1  0.02612000  0.50000000  0.03489000  1.0
  Pd  Pd18  2  0.00000000  0.24999000  0.95681000  1.0
  Pd  Pd19  2  0.21333000  0.26252000  0.15952000  1.0
  Pd  Pd20  1  0.50000000  0.00000000  0.87044000  1.0
  Pd  Pd21  1  0.50000000  0.50000000  0.87044000  1.0
  Pd  Pd22  1  0.57932000  0.00000000  0.05840000  1.0
  Pd  Pd23  1  0.61419000  0.50000000  0.06286000  1.0
  C  C24  1  0.24246000  0.00000000  0.08071000  1.0
