# generated using pymatgen
data_Li16Ga8Au8C
_symmetry_space_group_name_H-M   'P 1'
_cell_length_a   8.90130000
_cell_length_b   6.29417000
_cell_length_c   26.67600000
_cell_angle_alpha   90.00000000
_cell_angle_beta   90.00000000
_cell_angle_gamma   90.00000000
_symmetry_Int_Tables_number   1
_chemical_formula_structural   Li16Ga8Au8C
_chemical_formula_sum   'Li16 Ga8 Au8 C1'
_cell_volume   1494.55745665
_cell_formula_units_Z   1
loop_
 _symmetry_equiv_pos_site_id
 _symmetry_equiv_pos_as_xyz
  1  'x, y, z'
loop_
 _atom_site_type_symbol
 _atom_site_label
 _atom_site_symmetry_multiplicity
 _atom_site_fract_x
 _atom_site_fract_y
 _atom_site_fract_z
 _atom_site_occupancy
  Li  Li0  1  0.75000000  0.00000000  0.04171000  1.0
  Li  Li1  1  0.00000000  0.50000000  0.12513000  1.0
  Li  Li2  1  0.25000000  0.00000000  0.04171000  1.0
  Li  Li3  1  0.50000000  0.50000000  0.12513000  1.0
  Li  Li4  1  0.25000000  0.25000000  0.12513000  1.0
  Li  Li5  1  0.75000000  0.25000000  0.12513000  1.0
  Li  Li6  1  0.50000000  0.75000000  0.04171000  1.0
  Li  Li7  1  0.00000000  0.75000000  0.04171000  1.0
  Li  Li8  1  0.23169000  0.03333000  0.87097000  1.0
  Li  Li9  1  0.50000000  0.49396000  0.96159000  1.0
  Li  Li10  1  0.76831000  0.03333000  0.87097000  1.0
  Li  Li11  1  0.00000000  0.51810000  0.95817000  1.0
  Li  Li12  1  0.76454000  0.25391000  0.95460000  1.0
  Li  Li13  1  0.23546000  0.25391000  0.95460000  1.0
  Li  Li14  1  0.00000000  0.76252000  0.85974000  1.0
  Li  Li15  1  0.50000000  0.77281000  0.87794000  1.0
  Ga  Ga16  1  0.00000000  0.00000000  0.12513000  1.0
  Ga  Ga17  1  0.25000000  0.50000000  0.04171000  1.0
  Ga  Ga18  1  0.75000000  0.50000000  0.04171000  1.0
  Ga  Ga19  1  0.50000000  0.00000000  0.12513000  1.0
  Ga  Ga20  1  0.50000000  0.01717000  0.95840000  1.0
  Ga  Ga21  1  0.73596000  0.51657000  0.86524000  1.0
  Ga  Ga22  1  0.26404000  0.51657000  0.86524000  1.0
  Ga  Ga23  1  0.00000000  0.97188000  0.96367000  1.0
  Au  Au24  1  0.00000000  0.25000000  0.04171000  1.0
  Au  Au25  1  0.50000000  0.25000000  0.04171000  1.0
  Au  Au26  1  0.75000000  0.75000000  0.12513000  1.0
  Au  Au27  1  0.25000000  0.75000000  0.12513000  1.0
  Au  Au28  1  0.50000000  0.26834000  0.87928000  1.0
  Au  Au29  1  0.00000000  0.35127000  0.86533000  1.0
  Au  Au30  1  0.26477000  0.74203000  0.95582000  1.0
  Au  Au31  1  0.73523000  0.74203000  0.95582000  1.0
  C  C32  1  0.00000000  0.05079000  0.89395000  1.0
