# generated using pymatgen
data_Li16Ga8Au8C
_symmetry_space_group_name_H-M   Pm
_cell_length_a   6.29417000
_cell_length_b   8.90130000
_cell_length_c   26.67600000
_cell_angle_alpha   90.00000000
_cell_angle_beta   90.00000000
_cell_angle_gamma   90.00000000
_symmetry_Int_Tables_number   6
_chemical_formula_structural   Li16Ga8Au8C
_chemical_formula_sum   'Li16 Ga8 Au8 C1'
_cell_volume   1494.55745665
_cell_formula_units_Z   1
loop_
 _symmetry_equiv_pos_site_id
 _symmetry_equiv_pos_as_xyz
  1  'x, y, z'
  2  'x, -y, z'
loop_
 _atom_site_type_symbol
 _atom_site_label
 _atom_site_symmetry_multiplicity
 _atom_site_fract_x
 _atom_site_fract_y
 _atom_site_fract_z
 _atom_site_occupancy
  Li  Li0  2  0.00000000  0.25000000  0.95829000  1.0
  Li  Li1  2  0.03333000  0.23169000  0.12903000  1.0
  Li  Li2  2  0.25000000  0.25000000  0.87487000  1.0
  Li  Li3  2  0.25391000  0.23546000  0.04540000  1.0
  Li  Li4  1  0.49396000  0.50000000  0.03841000  1.0
  Li  Li5  1  0.50000000  0.00000000  0.87487000  1.0
  Li  Li6  1  0.50000000  0.50000000  0.87487000  1.0
  Li  Li7  1  0.51810000  0.00000000  0.04183000  1.0
  Li  Li8  1  0.75000000  0.00000000  0.95829000  1.0
  Li  Li9  1  0.75000000  0.50000000  0.95829000  1.0
  Li  Li10  1  0.76252000  0.00000000  0.14026000  1.0
  Li  Li11  1  0.77281000  0.50000000  0.12206000  1.0
  Ga  Ga12  2  0.50000000  0.25000000  0.95829000  1.0
  Ga  Ga13  2  0.51657000  0.26404000  0.13476000  1.0
  Ga  Ga14  1  0.00000000  0.00000000  0.87487000  1.0
  Ga  Ga15  1  0.00000000  0.50000000  0.87487000  1.0
  Ga  Ga16  1  0.01717000  0.50000000  0.04160000  1.0
  Ga  Ga17  1  0.97188000  0.00000000  0.03633000  1.0
  Au  Au18  2  0.74203000  0.26477000  0.04418000  1.0
  Au  Au19  2  0.75000000  0.25000000  0.87487000  1.0
  Au  Au20  1  0.25000000  0.00000000  0.95829000  1.0
  Au  Au21  1  0.25000000  0.50000000  0.95829000  1.0
  Au  Au22  1  0.26834000  0.50000000  0.12072000  1.0
  Au  Au23  1  0.35127000  0.00000000  0.13467000  1.0
  C  C24  1  0.05079000  0.00000000  0.10605000  1.0
