# generated using pymatgen
data_Sc4Ga4Ge4Pd4CO
_symmetry_space_group_name_H-M   'P 1'
_cell_length_a   8.58414000
_cell_length_b   5.63062000
_cell_length_c   24.22090000
_cell_angle_alpha   90.00000000
_cell_angle_beta   90.00000000
_cell_angle_gamma   90.00000000
_symmetry_Int_Tables_number   1
_chemical_formula_structural   Sc4Ga4Ge4Pd4CO
_chemical_formula_sum   'Sc4 Ga4 Ge4 Pd4 C1 O1'
_cell_volume   1170.69371611
_cell_formula_units_Z   1
loop_
 _symmetry_equiv_pos_site_id
 _symmetry_equiv_pos_as_xyz
  1  'x, y, z'
loop_
 _atom_site_type_symbol
 _atom_site_label
 _atom_site_symmetry_multiplicity
 _atom_site_fract_x
 _atom_site_fract_y
 _atom_site_fract_z
 _atom_site_occupancy
  Sc  Sc0  1  0.00000000  0.74217000  0.02904000  1.0
  Sc  Sc1  1  0.00000000  0.23226000  0.91376000  1.0
  Sc  Sc2  1  0.50000000  0.74217000  0.02904000  1.0
  Sc  Sc3  1  0.50000000  0.23300000  0.91523000  1.0
  Ga  Ga4  1  0.75000000  0.00000000  0.08713000  1.0
  Ga  Ga5  1  0.75034000  0.49902000  0.96378000  1.0
  Ga  Ga6  1  0.25000000  0.00000000  0.08713000  1.0
  Ga  Ga7  1  0.24966000  0.49902000  0.96378000  1.0
  Ge  Ge8  1  0.00000000  0.24217000  0.02904000  1.0
  Ge  Ge9  1  0.00000000  0.73323000  0.90834000  1.0
  Ge  Ge10  1  0.50000000  0.24217000  0.02904000  1.0
  Ge  Ge11  1  0.50000000  0.73087000  0.90905000  1.0
  Pd  Pd12  1  0.75000000  0.50000000  0.08713000  1.0
  Pd  Pd13  1  0.75048000  0.98344000  0.96368000  1.0
  Pd  Pd14  1  0.25000000  0.50000000  0.08713000  1.0
  Pd  Pd15  1  0.24952000  0.98344000  0.96368000  1.0
  C  C16  1  0.00000000  0.23014000  0.81692000  1.0
  O  O17  1  0.00000000  0.22669000  0.76966000  1.0
