# generated using pymatgen
data_Sc4Ga4Ge4Pd4CO
_symmetry_space_group_name_H-M   Pm
_cell_length_a   5.63062000
_cell_length_b   8.58414000
_cell_length_c   24.22090000
_cell_angle_alpha   90.00000000
_cell_angle_beta   90.00000000
_cell_angle_gamma   90.00000000
_symmetry_Int_Tables_number   6
_chemical_formula_structural   Sc4Ga4Ge4Pd4CO
_chemical_formula_sum   'Sc4 Ga4 Ge4 Pd4 C1 O1'
_cell_volume   1170.69371611
_cell_formula_units_Z   1
loop_
 _symmetry_equiv_pos_site_id
 _symmetry_equiv_pos_as_xyz
  1  'x, y, z'
  2  'x, -y, z'
loop_
 _atom_site_type_symbol
 _atom_site_label
 _atom_site_symmetry_multiplicity
 _atom_site_fract_x
 _atom_site_fract_y
 _atom_site_fract_z
 _atom_site_occupancy
  Sc  Sc0  1  0.23226000  0.00000000  0.08624000  1.0
  Sc  Sc1  1  0.23300000  0.50000000  0.08477000  1.0
  Sc  Sc2  1  0.74217000  0.00000000  0.97096000  1.0
  Sc  Sc3  1  0.74217000  0.50000000  0.97096000  1.0
  Ga  Ga4  2  0.00000000  0.25000000  0.91287000  1.0
  Ga  Ga5  2  0.49902000  0.24966000  0.03622000  1.0
  Ge  Ge6  1  0.24217000  0.00000000  0.97096000  1.0
  Ge  Ge7  1  0.24217000  0.50000000  0.97096000  1.0
  Ge  Ge8  1  0.73087000  0.50000000  0.09095000  1.0
  Ge  Ge9  1  0.73323000  0.00000000  0.09166000  1.0
  Pd  Pd10  2  0.50000000  0.25000000  0.91287000  1.0
  Pd  Pd11  2  0.98344000  0.24952000  0.03632000  1.0
  C  C12  1  0.23014000  0.00000000  0.18308000  1.0
  O  O13  1  0.22669000  0.00000000  0.23034000  1.0
