# generated using pymatgen
data_Hf4Rh12CO
_symmetry_space_group_name_H-M   Pm
_cell_length_a   5.58411000
_cell_length_b   7.89713000
_cell_length_c   24.18810000
_cell_angle_alpha   90.00000000
_cell_angle_beta   90.00000000
_cell_angle_gamma   90.00000000
_symmetry_Int_Tables_number   6
_chemical_formula_structural   Hf4Rh12CO
_chemical_formula_sum   'Hf4 Rh12 C1 O1'
_cell_volume   1066.65753956
_cell_formula_units_Z   1
loop_
 _symmetry_equiv_pos_site_id
 _symmetry_equiv_pos_as_xyz
  1  'x, y, z'
  2  'x, -y, z'
loop_
 _atom_site_type_symbol
 _atom_site_label
 _atom_site_symmetry_multiplicity
 _atom_site_fract_x
 _atom_site_fract_y
 _atom_site_fract_z
 _atom_site_occupancy
  Hf  Hf0  2  0.00000000  0.24997000  0.08657000  1.0
  Hf  Hf1  2  0.50112000  0.24955000  0.97207000  1.0
  Rh  Rh2  2  0.00327000  0.24879000  0.97501000  1.0
  Rh  Rh3  2  0.50000000  0.24997000  0.08657000  1.0
  Rh  Rh4  1  0.25000000  0.00000000  0.02886000  1.0
  Rh  Rh5  1  0.25000000  0.50000000  0.02886000  1.0
  Rh  Rh6  1  0.25678000  0.50000000  0.91755000  1.0
  Rh  Rh7  1  0.25830000  0.00000000  0.91802000  1.0
  Rh  Rh8  1  0.75000000  0.00000000  0.02886000  1.0
  Rh  Rh9  1  0.75000000  0.50000000  0.02886000  1.0
  Rh  Rh10  1  0.75321000  0.00000000  0.91843000  1.0
  Rh  Rh11  1  0.75579000  0.50000000  0.91636000  1.0
  C  C12  1  0.72267000  0.50000000  0.83977000  1.0
  O  O13  1  0.70694000  0.50000000  0.79191000  1.0
