# generated using pymatgen
data_Hf4Ir12C
_symmetry_space_group_name_H-M   'P 1'
_cell_length_a   7.94591000
_cell_length_b   5.61861000
_cell_length_c   24.21400000
_cell_angle_alpha   90.00000000
_cell_angle_beta   90.00000000
_cell_angle_gamma   90.00000000
_symmetry_Int_Tables_number   1
_chemical_formula_structural   Hf4Ir12C
_chemical_formula_sum   'Hf4 Ir12 C1'
_cell_volume   1081.03328869
_cell_formula_units_Z   1
loop_
 _symmetry_equiv_pos_site_id
 _symmetry_equiv_pos_as_xyz
  1  'x, y, z'
loop_
 _atom_site_type_symbol
 _atom_site_label
 _atom_site_symmetry_multiplicity
 _atom_site_fract_x
 _atom_site_fract_y
 _atom_site_fract_z
 _atom_site_occupancy
  Hf  Hf0  1  0.00000000  0.00000000  0.08702000  1.0
  Hf  Hf1  1  0.00001000  0.50000000  0.97609000  1.0
  Hf  Hf2  1  0.50000000  0.00000000  0.08702000  1.0
  Hf  Hf3  1  0.49999000  0.50000000  0.96763000  1.0
  Ir  Ir4  1  0.00000000  0.50000000  0.08702000  1.0
  Ir  Ir5  1  0.25000000  0.75000000  0.02901000  1.0
  Ir  Ir6  1  0.25000000  0.25000000  0.02901000  1.0
  Ir  Ir7  1  0.00000000  0.00000000  0.97773000  1.0
  Ir  Ir8  1  0.21824000  0.24926000  0.91505000  1.0
  Ir  Ir9  1  0.21824000  0.75074000  0.91505000  1.0
  Ir  Ir10  1  0.50000000  0.50000000  0.08702000  1.0
  Ir  Ir11  1  0.75000000  0.75000000  0.02901000  1.0
  Ir  Ir12  1  0.75000000  0.25000000  0.02901000  1.0
  Ir  Ir13  1  0.50001000  0.00000000  0.97038000  1.0
  Ir  Ir14  1  0.78178000  0.24926000  0.91504000  1.0
  Ir  Ir15  1  0.78178000  0.75074000  0.91504000  1.0
  C  C16  1  0.99994000  0.00000000  0.89375000  1.0
