data_image0
_chemical_formula_structural       Al4V4Fe8
_chemical_formula_sum              "Al4 V4 Fe8"
_cell_length_a       5.71239
_cell_length_b       5.71239
_cell_length_c       24.2843
_cell_angle_alpha    90
_cell_angle_beta     90
_cell_angle_gamma    90

_space_group_name_H-M_alt    "P 1"
_space_group_IT_number       1

loop_
  _space_group_symop_operation_xyz
  'x, y, z'

loop_
  _atom_site_type_symbol
  _atom_site_label
  _atom_site_symmetry_multiplicity
  _atom_site_fract_x
  _atom_site_fract_y
  _atom_site_fract_z
  _atom_site_occupancy
  Al  Al1       1.0  0.00000  0.00000  0.91179  1.0000
  Al  Al2       1.0  0.50000  0.50000  0.91179  1.0000
  Al  Al3       1.0  0.49999  0.99998  0.02921  1.0000
  Al  Al4       1.0  0.00001  0.50002  0.02921  1.0000
  V   V1        1.0  0.00004  0.99995  0.03055  1.0000
  V   V2        1.0  0.50000  0.00000  0.91179  1.0000
  V   V3        1.0  0.00000  0.50000  0.91179  1.0000
  V   V4        1.0  0.49996  0.50005  0.03055  1.0000
  Fe  Fe1       1.0  0.25000  0.25000  0.97060  1.0000
  Fe  Fe2       1.0  0.74998  0.75001  0.09490  1.0000
  Fe  Fe3       1.0  0.75000  0.25000  0.97060  1.0000
  Fe  Fe4       1.0  0.25002  0.75002  0.09490  1.0000
  Fe  Fe5       1.0  0.75000  0.75000  0.97060  1.0000
  Fe  Fe6       1.0  0.25002  0.24998  0.09490  1.0000
  Fe  Fe7       1.0  0.25000  0.75000  0.97060  1.0000
  Fe  Fe8       1.0  0.74998  0.24999  0.09490  1.0000
