# generated using pymatgen
data_Fe16Co16CO
_symmetry_space_group_name_H-M   'P 1'
_cell_length_a   5.71351000
_cell_length_b   8.08012000
_cell_length_c   26.06010000
_cell_angle_alpha   90.00000000
_cell_angle_beta   90.00000000
_cell_angle_gamma   90.00000000
_symmetry_Int_Tables_number   1
_chemical_formula_structural   Fe16Co16CO
_chemical_formula_sum   'Fe16 Co16 C1 O1'
_cell_volume   1203.08657432
_cell_formula_units_Z   1
loop_
 _symmetry_equiv_pos_site_id
 _symmetry_equiv_pos_as_xyz
  1  'x, y, z'
loop_
 _atom_site_type_symbol
 _atom_site_label
 _atom_site_symmetry_multiplicity
 _atom_site_fract_x
 _atom_site_fract_y
 _atom_site_fract_z
 _atom_site_occupancy
  Fe  Fe0  1  0.00000000  0.75001000  0.88373000  1.0
  Fe  Fe1  1  0.00000000  0.00000000  0.96124000  1.0
  Fe  Fe2  1  0.00000000  0.75091000  0.03944000  1.0
  Fe  Fe3  1  0.00000000  0.00000000  0.11766000  1.0
  Fe  Fe4  1  0.00000000  0.24999000  0.88373000  1.0
  Fe  Fe5  1  0.00000000  0.50000000  0.96124000  1.0
  Fe  Fe6  1  0.00000000  0.24909000  0.03944000  1.0
  Fe  Fe7  1  0.00000000  0.50000000  0.11797000  1.0
  Fe  Fe8  1  0.50000000  0.75001000  0.88373000  1.0
  Fe  Fe9  1  0.50000000  0.00000000  0.96124000  1.0
  Fe  Fe10  1  0.50000000  0.74975000  0.03998000  1.0
  Fe  Fe11  1  0.50000000  0.00000000  0.11675000  1.0
  Fe  Fe12  1  0.50000000  0.24999000  0.88373000  1.0
  Fe  Fe13  1  0.50000000  0.50000000  0.96124000  1.0
  Fe  Fe14  1  0.50000000  0.25025000  0.03998000  1.0
  Fe  Fe15  1  0.50000000  0.50000000  0.11808000  1.0
  Co  Co16  1  0.25000000  0.00000000  0.88373000  1.0
  Co  Co17  1  0.25000000  0.75001000  0.96124000  1.0
  Co  Co18  1  0.25175000  0.00000000  0.03870000  1.0
  Co  Co19  1  0.24804000  0.25112000  0.11309000  1.0
  Co  Co20  1  0.25000000  0.50000000  0.88373000  1.0
  Co  Co21  1  0.25000000  0.24999000  0.96124000  1.0
  Co  Co22  1  0.24982000  0.50000000  0.03955000  1.0
  Co  Co23  1  0.24804000  0.74888000  0.11309000  1.0
  Co  Co24  1  0.75000000  0.00000000  0.88373000  1.0
  Co  Co25  1  0.75000000  0.75001000  0.96124000  1.0
  Co  Co26  1  0.74825000  0.00000000  0.03870000  1.0
  Co  Co27  1  0.75196000  0.25112000  0.11309000  1.0
  Co  Co28  1  0.75000000  0.50000000  0.88373000  1.0
  Co  Co29  1  0.75000000  0.24999000  0.96124000  1.0
  Co  Co30  1  0.75018000  0.50000000  0.03955000  1.0
  Co  Co31  1  0.75196000  0.74888000  0.11309000  1.0
  C  C32  1  0.00000000  0.00000000  0.18693000  1.0
  O  O33  1  0.00000000  0.00000000  0.23148000  1.0
