# generated using pymatgen
data_Li16Pb8Au8C
_symmetry_space_group_name_H-M   'P 1'
_cell_length_a   9.64550000
_cell_length_b   6.82040000
_cell_length_c   27.23410000
_cell_angle_alpha   90.00000000
_cell_angle_beta   90.00000000
_cell_angle_gamma   90.00000000
_symmetry_Int_Tables_number   1
_chemical_formula_structural   Li16Pb8Au8C
_chemical_formula_sum   'Li16 Pb8 Au8 C1'
_cell_volume   1791.62708338
_cell_formula_units_Z   1
loop_
 _symmetry_equiv_pos_site_id
 _symmetry_equiv_pos_as_xyz
  1  'x, y, z'
loop_
 _atom_site_type_symbol
 _atom_site_label
 _atom_site_symmetry_multiplicity
 _atom_site_fract_x
 _atom_site_fract_y
 _atom_site_fract_z
 _atom_site_occupancy
  Li  Li0  1  0.75000000  1.00000000  0.04427000  1.0
  Li  Li1  1  0.00000000  0.50000000  0.13281000  1.0
  Li  Li2  1  0.25000000  1.00000000  0.04427000  1.0
  Li  Li3  1  0.50000000  0.50000000  0.13281000  1.0
  Li  Li4  1  0.00000000  0.25000000  0.04427000  1.0
  Li  Li5  1  0.50000000  0.25000000  0.04427000  1.0
  Li  Li6  1  0.75000000  0.75000000  0.13281000  1.0
  Li  Li7  1  0.25000000  0.75000000  0.13281000  1.0
  Li  Li8  1  0.22015000  0.98460000  0.86425000  1.0
  Li  Li9  1  0.50000000  0.50669000  0.95704000  1.0
  Li  Li10  1  0.77985000  0.98460000  0.86425000  1.0
  Li  Li11  1  0.00000000  0.49870000  0.95833000  1.0
  Li  Li12  1  0.50000000  0.22929000  0.87249000  1.0
  Li  Li13  1  0.00000000  0.26646000  0.86439000  1.0
  Li  Li14  1  0.24240000  0.72075000  0.94189000  1.0
  Li  Li15  1  0.75760000  0.72075000  0.94189000  1.0
  Pb  Pb16  1  0.00000000  0.00000000  0.13281000  1.0
  Pb  Pb17  1  0.25000000  0.50000000  0.04427000  1.0
  Pb  Pb18  1  0.75000000  0.50000000  0.04427000  1.0
  Pb  Pb19  1  0.50000000  1.00000000  0.13281000  1.0
  Pb  Pb20  1  0.50000000  0.00464000  0.96034000  1.0
  Pb  Pb21  1  0.73213000  0.49027000  0.84395000  1.0
  Pb  Pb22  1  0.26787000  0.49027000  0.84395000  1.0
  Pb  Pb23  1  0.00000000  0.03718000  0.96076000  1.0
  Au  Au24  1  0.25000000  0.25000000  0.13281000  1.0
  Au  Au25  1  0.75000000  0.25000000  0.13281000  1.0
  Au  Au26  1  0.50000000  0.75000000  0.04427000  1.0
  Au  Au27  1  0.00000000  0.75000000  0.04427000  1.0
  Au  Au28  1  0.73941000  0.29662000  0.94196000  1.0
  Au  Au29  1  0.26059000  0.29662000  0.94196000  1.0
  Au  Au30  1  0.00000000  0.67494000  0.86783000  1.0
  Au  Au31  1  0.50000000  0.75267000  0.87670000  1.0
  C  C32  1  0.00000000  0.97087000  0.87882000  1.0
