# generated using pymatgen
data_Li4In4Pd4Au4CO
_symmetry_space_group_name_H-M   'P 1'
_cell_length_a   7.53916000
_cell_length_b   6.08394000
_cell_length_c   24.55190000
_cell_angle_alpha   90.00000000
_cell_angle_beta   90.00000000
_cell_angle_gamma   90.00000000
_symmetry_Int_Tables_number   1
_chemical_formula_structural   Li4In4Pd4Au4CO
_chemical_formula_sum   'Li4 In4 Pd4 Au4 C1 O1'
_cell_volume   1126.14156738
_cell_formula_units_Z   1
loop_
 _symmetry_equiv_pos_site_id
 _symmetry_equiv_pos_as_xyz
  1  'x, y, z'
loop_
 _atom_site_type_symbol
 _atom_site_label
 _atom_site_symmetry_multiplicity
 _atom_site_fract_x
 _atom_site_fract_y
 _atom_site_fract_z
 _atom_site_occupancy
  Li  Li0  1  0.50000000  0.76737000  0.96910000  1.0
  Li  Li1  1  0.50000000  0.30315000  0.09193000  1.0
  Li  Li2  1  0.00000000  0.76737000  0.96910000  1.0
  Li  Li3  1  0.00000000  0.30255000  0.09333000  1.0
  In  In4  1  0.50000000  0.26737000  0.96910000  1.0
  In  In5  1  0.50000000  0.81881000  0.09700000  1.0
  In  In6  1  0.00000000  0.26737000  0.96910000  1.0
  In  In7  1  0.00000000  0.81327000  0.10068000  1.0
  Pd  Pd8  1  0.75000000  0.50000000  0.90730000  1.0
  Pd  Pd9  1  0.75343000  0.04784000  0.03589000  1.0
  Pd  Pd10  1  0.25000000  0.50000000  0.90730000  1.0
  Pd  Pd11  1  0.24657000  0.04784000  0.03589000  1.0
  Au  Au12  1  0.75000000  0.00000000  0.90730000  1.0
  Au  Au13  1  0.74971000  0.54412000  0.03575000  1.0
  Au  Au14  1  0.25000000  0.00000000  0.90730000  1.0
  Au  Au15  1  0.25029000  0.54412000  0.03575000  1.0
  C  C16  1  0.50000000  0.63818000  0.23113000  1.0
  O  O17  1  0.50000000  0.79242000  0.25735000  1.0
