# generated using pymatgen
data_Li8Mg8In8Pb8CO
_symmetry_space_group_name_H-M   'P 1'
_cell_length_a   10.06110000
_cell_length_b   7.11424000
_cell_length_c   27.54580000
_cell_angle_alpha   90.00000000
_cell_angle_beta   90.00000000
_cell_angle_gamma   90.00000000
_symmetry_Int_Tables_number   1
_chemical_formula_structural   Li8Mg8In8Pb8CO
_chemical_formula_sum   'Li8 Mg8 In8 Pb8 C1 O1'
_cell_volume   1971.64793203
_cell_formula_units_Z   1
loop_
 _symmetry_equiv_pos_site_id
 _symmetry_equiv_pos_as_xyz
  1  'x, y, z'
loop_
 _atom_site_type_symbol
 _atom_site_label
 _atom_site_symmetry_multiplicity
 _atom_site_fract_x
 _atom_site_fract_y
 _atom_site_fract_z
 _atom_site_occupancy
  Li  Li0  1  0.50000000  0.75000000  0.04566000  1.0
  Li  Li1  1  0.00000000  0.75000000  0.04566000  1.0
  Li  Li2  1  0.75001000  0.25000000  0.13697000  1.0
  Li  Li3  1  0.24999000  0.25000000  0.13697000  1.0
  Li  Li4  1  0.00000000  0.74510000  0.85824000  1.0
  Li  Li5  1  0.50000000  0.75029000  0.85443000  1.0
  Li  Li6  1  0.25069000  0.24471000  0.95026000  1.0
  Li  Li7  1  0.74931000  0.24471000  0.95026000  1.0
  Mg  Mg8  1  0.50000000  0.25000000  0.04566000  1.0
  Mg  Mg9  1  0.00000000  0.25000000  0.04566000  1.0
  Mg  Mg10  1  0.75001000  0.75000000  0.13697000  1.0
  Mg  Mg11  1  0.24999000  0.75000000  0.13697000  1.0
  Mg  Mg12  1  0.00000000  0.25023000  0.85149000  1.0
  Mg  Mg13  1  0.50000000  0.24324000  0.85398000  1.0
  Mg  Mg14  1  0.24893000  0.75276000  0.94856000  1.0
  Mg  Mg15  1  0.75107000  0.75276000  0.94856000  1.0
  In  In16  1  0.50000000  0.00000000  0.13697000  1.0
  In  In17  1  0.00000000  0.00000000  0.13697000  1.0
  In  In18  1  0.25001000  0.50000000  0.04566000  1.0
  In  In19  1  0.74999000  0.50000000  0.04566000  1.0
  In  In20  1  0.00000000  0.00605000  0.94759000  1.0
  In  In21  1  0.50000000  0.00262000  0.94819000  1.0
  In  In22  1  0.75151000  0.49956000  0.85090000  1.0
  In  In23  1  0.24849000  0.49956000  0.85090000  1.0
  Pb  Pb24  1  0.75001000  0.00000000  0.04566000  1.0
  Pb  Pb25  1  0.24999000  0.00000000  0.04566000  1.0
  Pb  Pb26  1  0.00000000  0.50000000  0.13697000  1.0
  Pb  Pb27  1  0.50000000  0.50000000  0.13697000  1.0
  Pb  Pb28  1  0.24606000  0.99419000  0.84973000  1.0
  Pb  Pb29  1  0.75394000  0.99419000  0.84973000  1.0
  Pb  Pb30  1  0.50000000  0.49795000  0.94793000  1.0
  Pb  Pb31  1  0.00000000  0.49466000  0.94899000  1.0
  C  C32  1  0.50000000  0.74725000  0.77874000  1.0
  O  O33  1  0.50000000  0.74827000  0.73718000  1.0
