# generated using pymatgen
data_Li8Mg8In8Pb8CO
_symmetry_space_group_name_H-M   Pm
_cell_length_a   7.11424000
_cell_length_b   10.06110000
_cell_length_c   27.54580000
_cell_angle_alpha   90.00000000
_cell_angle_beta   90.00000000
_cell_angle_gamma   90.00000000
_symmetry_Int_Tables_number   6
_chemical_formula_structural   Li8Mg8In8Pb8CO
_chemical_formula_sum   'Li8 Mg8 In8 Pb8 C1 O1'
_cell_volume   1971.64793203
_cell_formula_units_Z   1
loop_
 _symmetry_equiv_pos_site_id
 _symmetry_equiv_pos_as_xyz
  1  'x, y, z'
  2  'x, -y, z'
loop_
 _atom_site_type_symbol
 _atom_site_label
 _atom_site_symmetry_multiplicity
 _atom_site_fract_x
 _atom_site_fract_y
 _atom_site_fract_z
 _atom_site_occupancy
  Li  Li0  2  0.24471000  0.25069000  0.04974000  1.0
  Li  Li1  2  0.25000000  0.24999000  0.86303000  1.0
  Li  Li2  1  0.74510000  0.00000000  0.14176000  1.0
  Li  Li3  1  0.75000000  0.00000000  0.95434000  1.0
  Li  Li4  1  0.75000000  0.50000000  0.95434000  1.0
  Li  Li5  1  0.75029000  0.50000000  0.14557000  1.0
  Mg  Mg6  2  0.75000000  0.24999000  0.86303000  1.0
  Mg  Mg7  2  0.75276000  0.24893000  0.05144000  1.0
  Mg  Mg8  1  0.24324000  0.50000000  0.14602000  1.0
  Mg  Mg9  1  0.25000000  0.00000000  0.95434000  1.0
  Mg  Mg10  1  0.25000000  0.50000000  0.95434000  1.0
  Mg  Mg11  1  0.25023000  0.00000000  0.14851000  1.0
  In  In12  2  0.49956000  0.24849000  0.14910000  1.0
  In  In13  2  0.50000000  0.25001000  0.95434000  1.0
  In  In14  1  0.00000000  0.50000000  0.86303000  1.0
  In  In15  1  0.00000000  0.00000000  0.86303000  1.0
  In  In16  1  0.00262000  0.50000000  0.05181000  1.0
  In  In17  1  0.00605000  0.00000000  0.05241000  1.0
  Pb  Pb18  2  0.00000000  0.24999000  0.95434000  1.0
  Pb  Pb19  2  0.99419000  0.24606000  0.15027000  1.0
  Pb  Pb20  1  0.49466000  0.00000000  0.05101000  1.0
  Pb  Pb21  1  0.49795000  0.50000000  0.05207000  1.0
  Pb  Pb22  1  0.50000000  0.00000000  0.86303000  1.0
  Pb  Pb23  1  0.50000000  0.50000000  0.86303000  1.0
  C  C24  1  0.74725000  0.50000000  0.22126000  1.0
  O  O25  1  0.74827000  0.50000000  0.26282000  1.0
