# generated using pymatgen
data_Li4In4Ge4Au4CO
_symmetry_space_group_name_H-M   'P 1'
_cell_length_a   8.57796000
_cell_length_b   5.96101000
_cell_length_c   24.47060000
_cell_angle_alpha   90.00000000
_cell_angle_beta   90.00000000
_cell_angle_gamma   90.00000000
_symmetry_Int_Tables_number   1
_chemical_formula_structural   Li4In4Ge4Au4CO
_chemical_formula_sum   'Li4 In4 Ge4 Au4 C1 O1'
_cell_volume   1251.26266164
_cell_formula_units_Z   1
loop_
 _symmetry_equiv_pos_site_id
 _symmetry_equiv_pos_as_xyz
  1  'x, y, z'
loop_
 _atom_site_type_symbol
 _atom_site_label
 _atom_site_symmetry_multiplicity
 _atom_site_fract_x
 _atom_site_fract_y
 _atom_site_fract_z
 _atom_site_occupancy
  Li  Li0  1  0.75000000  0.50000000  0.09135000  1.0
  Li  Li1  1  0.74953000  0.00391000  0.97483000  1.0
  Li  Li2  1  0.25000000  0.50000000  0.09135000  1.0
  Li  Li3  1  0.25047000  0.00391000  0.97483000  1.0
  In  In4  1  0.00000000  0.24790000  0.03045000  1.0
  In  In5  1  0.00000000  0.80409000  0.90223000  1.0
  In  In6  1  0.50000000  0.24790000  0.03045000  1.0
  In  In7  1  0.50000000  0.79274000  0.90085000  1.0
  Ge  Ge8  1  0.00000000  0.74790000  0.03045000  1.0
  Ge  Ge9  1  0.00000000  0.31838000  0.91585000  1.0
  Ge  Ge10  1  0.50000000  0.74790000  0.03045000  1.0
  Ge  Ge11  1  0.50000000  0.30745000  0.91565000  1.0
  Au  Au12  1  0.75000000  0.00000000  0.09135000  1.0
  Au  Au13  1  0.74988000  0.53037000  0.96506000  1.0
  Au  Au14  1  0.25000000  0.00000000  0.09135000  1.0
  Au  Au15  1  0.25012000  0.53037000  0.96506000  1.0
  C  C16  1  0.00000000  0.67344000  0.75082000  1.0
  O  O17  1  0.00000000  0.79108000  0.71427000  1.0
