data_image0
_chemical_formula_structural       Li8Ga4Pt4C
_chemical_formula_sum              "Li8 Ga4 Pt4 C1"
_cell_length_a       6.10853
_cell_length_b       6.10853
_cell_length_c       24.5814
_cell_angle_alpha    90
_cell_angle_beta     90
_cell_angle_gamma    90

_space_group_name_H-M_alt    "P 1"
_space_group_IT_number       1

loop_
  _space_group_symop_operation_xyz
  'x, y, z'

loop_
  _atom_site_type_symbol
  _atom_site_label
  _atom_site_symmetry_multiplicity
  _atom_site_fract_x
  _atom_site_fract_y
  _atom_site_fract_z
  _atom_site_occupancy
  Li  Li1       1.0  0.00000  0.00000  0.96894  1.0000
  Li  Li2       1.0  0.50990  0.99089  0.12111  1.0000
  Li  Li3       1.0  0.99089  0.50989  0.12111  1.0000
  Li  Li4       1.0  0.50000  0.50000  0.96894  1.0000
  Li  Li5       1.0  0.25000  0.25000  0.90681  1.0000
  Li  Li6       1.0  0.24994  0.75014  0.03834  1.0000
  Li  Li7       1.0  0.75000  0.75000  0.90681  1.0000
  Li  Li8       1.0  0.75015  0.24994  0.03834  1.0000
  Ga  Ga1       1.0  0.24985  0.24985  0.02406  1.0000
  Ga  Ga2       1.0  0.25000  0.75000  0.90681  1.0000
  Ga  Ga3       1.0  0.74937  0.74937  0.04195  1.0000
  Ga  Ga4       1.0  0.75000  0.25000  0.90681  1.0000
  Pt  Pt1       1.0  0.02744  0.02744  0.09341  1.0000
  Pt  Pt2       1.0  0.47126  0.47125  0.09341  1.0000
  Pt  Pt3       1.0  0.50000  0.00000  0.96894  1.0000
  Pt  Pt4       1.0  0.00000  0.50000  0.96894  1.0000
  C   C1        1.0  0.24925  0.24925  0.11494  1.0000
