# generated using pymatgen
data_Li8Ga4Pt4C
_symmetry_space_group_name_H-M   'P 1'
_cell_length_a   6.10853000
_cell_length_b   6.10853000
_cell_length_c   24.58140000
_cell_angle_alpha   90.00000000
_cell_angle_beta   90.00000000
_cell_angle_gamma   90.00000000
_symmetry_Int_Tables_number   1
_chemical_formula_structural   Li8Ga4Pt4C
_chemical_formula_sum   'Li8 Ga4 Pt4 C1'
_cell_volume   917.23377054
_cell_formula_units_Z   1
loop_
 _symmetry_equiv_pos_site_id
 _symmetry_equiv_pos_as_xyz
  1  'x, y, z'
loop_
 _atom_site_type_symbol
 _atom_site_label
 _atom_site_symmetry_multiplicity
 _atom_site_fract_x
 _atom_site_fract_y
 _atom_site_fract_z
 _atom_site_occupancy
  Li  Li0  1  0.00000000  0.00000000  0.03106000  1
  Li  Li1  1  0.99089000  0.49010000  0.87889000  1
  Li  Li2  1  0.50990000  0.00911000  0.87889000  1
  Li  Li3  1  0.50000000  0.50000000  0.03106000  1
  Li  Li4  1  0.25000000  0.75000000  0.09319000  1
  Li  Li5  1  0.75014000  0.75006000  0.96166000  1
  Li  Li6  1  0.75000000  0.25000000  0.09319000  1
  Li  Li7  1  0.24994000  0.24986000  0.96166000  1
  Ga  Ga8  1  0.24985000  0.75015000  0.97594000  1
  Ga  Ga9  1  0.75000000  0.75000000  0.09319000  1
  Ga  Ga10  1  0.74937000  0.25063000  0.95805000  1
  Ga  Ga11  1  0.25000000  0.25000000  0.09319000  1
  Pt  Pt12  1  0.02744000  0.97256000  0.90659000  1
  Pt  Pt13  1  0.47125500  0.52874500  0.90659000  1
  Pt  Pt14  1  1.00000000  0.50000000  0.03106000  1
  Pt  Pt15  1  0.50000000  0.00000000  0.03106000  1
  C  C16  1  0.24925000  0.75075000  0.88506000  1
