# generated using pymatgen
data_Li8Ag8Sn8Pd8CO
_symmetry_space_group_name_H-M   Pm
_cell_length_a   6.55175000
_cell_length_b   9.26558000
_cell_length_c   26.94920000
_cell_angle_alpha   90.00000000
_cell_angle_beta   90.00000000
_cell_angle_gamma   90.00000000
_symmetry_Int_Tables_number   6
_chemical_formula_structural   Li8Ag8Sn8Pd8CO
_chemical_formula_sum   'Li8 Ag8 Sn8 Pd8 C1 O1'
_cell_volume   1635.97176886
_cell_formula_units_Z   1
loop_
 _symmetry_equiv_pos_site_id
 _symmetry_equiv_pos_as_xyz
  1  'x, y, z'
  2  'x, -y, z'
loop_
 _atom_site_type_symbol
 _atom_site_label
 _atom_site_symmetry_multiplicity
 _atom_site_fract_x
 _atom_site_fract_y
 _atom_site_fract_z
 _atom_site_occupancy
  Li  Li0  2  0.24159000  0.25096000  0.13065000  1.0
  Li  Li1  2  0.25000000  0.25002000  0.95702000  1.0
  Li  Li2  1  0.74431000  0.50000000  0.03887000  1.0
  Li  Li3  1  0.75000000  0.00000000  0.87107000  1.0
  Li  Li4  1  0.75000000  0.50000000  0.87107000  1.0
  Li  Li5  1  0.75130000  0.00000000  0.04165000  1.0
  Ag  Ag6  2  0.00000000  0.25002000  0.87107000  1.0
  Ag  Ag7  2  0.98437000  0.24573000  0.04776000  1.0
  Ag  Ag8  1  0.50000000  0.00000000  0.95702000  1.0
  Ag  Ag9  1  0.50000000  0.50000000  0.95702000  1.0
  Ag  Ag10  1  0.50784000  0.50000000  0.12448000  1.0
  Ag  Ag11  1  0.52040000  0.00000000  0.12448000  1.0
  Sn  Sn12  2  0.75000000  0.25002000  0.95702000  1.0
  Sn  Sn13  2  0.75161000  0.25285000  0.13898000  1.0
  Sn  Sn14  1  0.24612000  0.50000000  0.04190000  1.0
  Sn  Sn15  1  0.24681000  0.00000000  0.04183000  1.0
  Sn  Sn16  1  0.25000000  0.00000000  0.87107000  1.0
  Sn  Sn17  1  0.25000000  0.50000000  0.87107000  1.0
  Pd  Pd18  2  0.49830000  0.24940000  0.04642000  1.0
  Pd  Pd19  2  0.50000000  0.24998000  0.87107000  1.0
  Pd  Pd20  1  0.00000000  0.00000000  0.95702000  1.0
  Pd  Pd21  1  0.00000000  0.50000000  0.95702000  1.0
  Pd  Pd22  1  0.00708000  0.00000000  0.13140000  1.0
  Pd  Pd23  1  0.97236000  0.50000000  0.11845000  1.0
  C  C24  1  0.09611000  0.00000000  0.20083000  1.0
  O  O25  1  0.10726000  0.00000000  0.24357000  1.0
