# generated using pymatgen
data_Li8Mg8In8Cu8CO
_symmetry_space_group_name_H-M   Pm
_cell_length_a   6.43808000
_cell_length_b   9.10482000
_cell_length_c   26.82860000
_cell_angle_alpha   90.00000000
_cell_angle_beta   90.00000000
_cell_angle_gamma   90.00000000
_symmetry_Int_Tables_number   6
_chemical_formula_structural   Li8Mg8In8Cu8CO
_chemical_formula_sum   'Li8 Mg8 In8 Cu8 C1 O1'
_cell_volume   1572.62705803
_cell_formula_units_Z   1
loop_
 _symmetry_equiv_pos_site_id
 _symmetry_equiv_pos_as_xyz
  1  'x, y, z'
  2  'x, -y, z'
loop_
 _atom_site_type_symbol
 _atom_site_label
 _atom_site_symmetry_multiplicity
 _atom_site_fract_x
 _atom_site_fract_y
 _atom_site_fract_z
 _atom_site_occupancy
  Li  Li0  2  0.49838000  0.25007000  0.04517000  1.0
  Li  Li1  2  0.50000000  0.25000000  0.87274000  1.0
  Li  Li2  1  0.00000000  0.00000000  0.95758000  1.0
  Li  Li3  1  0.00000000  0.50000000  0.95758000  1.0
  Li  Li4  1  0.03666000  0.00000000  0.16637000  1.0
  Li  Li5  1  0.03729000  0.50000000  0.16798000  1.0
  Mg  Mg6  2  0.75000000  0.25000000  0.95758000  1.0
  Mg  Mg7  2  0.75688000  0.25162000  0.13269000  1.0
  Mg  Mg8  1  0.23528000  0.50000000  0.05024000  1.0
  Mg  Mg9  1  0.23568000  0.00000000  0.04953000  1.0
  Mg  Mg10  1  0.25000000  0.00000000  0.87274000  1.0
  Mg  Mg11  1  0.25000000  0.50000000  0.87274000  1.0
  In  In12  2  0.25000000  0.25000000  0.95758000  1.0
  In  In13  2  0.25303000  0.25079000  0.13548000  1.0
  In  In14  1  0.75000000  0.00000000  0.87274000  1.0
  In  In15  1  0.75000000  0.50000000  0.87274000  1.0
  In  In16  1  0.75647000  0.50000000  0.04836000  1.0
  In  In17  1  0.75762000  0.00000000  0.04929000  1.0
  Cu  Cu18  2  0.00000000  0.25000000  0.87274000  1.0
  Cu  Cu19  2  0.00167000  0.25026000  0.04094000  1.0
  Cu  Cu20  1  0.49354000  0.00000000  0.12760000  1.0
  Cu  Cu21  1  0.49714000  0.50000000  0.12787000  1.0
  Cu  Cu22  1  0.50000000  0.00000000  0.95758000  1.0
  Cu  Cu23  1  0.50000000  0.50000000  0.95758000  1.0
  C  C24  1  0.94472000  0.00000000  0.24064000  1.0
  O  O25  1  0.88953000  0.00000000  0.28106000  1.0
