# generated using pymatgen
data_K8Na16Sb8C
_symmetry_space_group_name_H-M   'P 1'
_cell_length_a   7.84214000
_cell_length_b   11.09050000
_cell_length_c   28.31780000
_cell_angle_alpha   90.00000000
_cell_angle_beta   90.00000000
_cell_angle_gamma   90.00000000
_symmetry_Int_Tables_number   1
_chemical_formula_structural   K8Na16Sb8C
_chemical_formula_sum   'K8 Na16 Sb8 C1'
_cell_volume   2462.89120278
_cell_formula_units_Z   1
loop_
 _symmetry_equiv_pos_site_id
 _symmetry_equiv_pos_as_xyz
  1  'x, y, z'
loop_
 _atom_site_type_symbol
 _atom_site_label
 _atom_site_symmetry_multiplicity
 _atom_site_fract_x
 _atom_site_fract_y
 _atom_site_fract_z
 _atom_site_occupancy
  K  K0  1  0.00000000  0.00000000  0.85313000  1.0
  K  K1  1  0.50000000  0.25000000  0.95104000  1.0
  K  K2  1  0.50000000  0.75000000  0.95104000  1.0
  K  K3  1  1.00000000  0.50000000  0.85313000  1.0
  K  K4  1  0.01738000  0.48967000  0.04663000  1.0
  K  K5  1  0.47082000  0.74986000  0.16529000  1.0
  K  K6  1  0.51467000  0.24938000  0.19691000  1.0
  K  K7  1  0.01772000  0.01042000  0.04670000  1.0
  Na  Na8  1  0.25000000  0.00000000  0.95104000  1.0
  Na  Na9  1  0.75000000  0.50000000  0.95104000  1.0
  Na  Na10  1  0.75000000  0.00000000  0.95104000  1.0
  Na  Na11  1  0.25000000  0.50000000  0.95104000  1.0
  Na  Na12  1  0.75000000  0.75000000  0.85313000  1.0
  Na  Na13  1  0.25000000  0.25000000  0.85313000  1.0
  Na  Na14  1  0.25000000  0.75000000  0.85313000  1.0
  Na  Na15  1  0.75000000  0.25000000  0.85313000  1.0
  Na  Na16  1  0.21249000  0.48368000  0.15370000  1.0
  Na  Na17  1  0.76490000  0.97876000  0.14408000  1.0
  Na  Na18  1  0.76506000  0.52062000  0.14403000  1.0
  Na  Na19  1  0.21208000  0.01422000  0.15399000  1.0
  Na  Na20  1  0.72873000  0.24986000  0.05140000  1.0
  Na  Na21  1  0.26362000  0.75006000  0.05483000  1.0
  Na  Na22  1  0.32775000  0.24988000  0.07199000  1.0
  Na  Na23  1  0.75087000  0.75000000  0.05295000  1.0
  Sb  Sb24  1  1.00000000  0.75000000  0.95104000  1.0
  Sb  Sb25  1  0.50000000  0.00000000  0.85313000  1.0
  Sb  Sb26  1  1.00000000  0.25000000  0.95104000  1.0
  Sb  Sb27  1  0.50000000  0.50000000  0.85313000  1.0
  Sb  Sb28  1  0.93692000  0.25006000  0.14944000  1.0
  Sb  Sb29  1  0.50707000  0.50566000  0.05313000  1.0
  Sb  Sb30  1  0.00817000  0.74985000  0.14344000  1.0
  Sb  Sb31  1  0.50726000  0.99410000  0.05306000  1.0
  C  C32  1  0.19929000  0.24984000  0.15305000  1.0
