data_image0
_chemical_formula_structural       K4Na8Sb4K4Na8Sb4C
_chemical_formula_sum              "K8 Na16 Sb8 C1"
_cell_length_a       7.84214
_cell_length_b       11.0905
_cell_length_c       28.3178
_cell_angle_alpha    90
_cell_angle_beta     90
_cell_angle_gamma    90

_space_group_name_H-M_alt    "P 1"
_space_group_IT_number       1

loop_
  _space_group_symop_operation_xyz
  'x, y, z'

loop_
  _atom_site_type_symbol
  _atom_site_label
  _atom_site_symmetry_multiplicity
  _atom_site_fract_x
  _atom_site_fract_y
  _atom_site_fract_z
  _atom_site_occupancy
  K   K1        1.0  0.00000  0.00000  0.85313  1.0000
  K   K2        1.0  0.50000  0.25000  0.95104  1.0000
  K   K3        1.0  0.50000  0.75000  0.95104  1.0000
  K   K4        1.0  0.00000  0.50000  0.85313  1.0000
  Na  Na1       1.0  0.25000  0.00000  0.95104  1.0000
  Na  Na2       1.0  0.75000  0.50000  0.95104  1.0000
  Na  Na3       1.0  0.75000  0.00000  0.95104  1.0000
  Na  Na4       1.0  0.25000  0.50000  0.95104  1.0000
  Na  Na5       1.0  0.75000  0.75000  0.85313  1.0000
  Na  Na6       1.0  0.25000  0.25000  0.85313  1.0000
  Na  Na7       1.0  0.25000  0.75000  0.85313  1.0000
  Na  Na8       1.0  0.75000  0.25000  0.85313  1.0000
  Sb  Sb1       1.0  0.00000  0.75000  0.95104  1.0000
  Sb  Sb2       1.0  0.50000  0.00000  0.85313  1.0000
  Sb  Sb3       1.0  0.00000  0.25000  0.95104  1.0000
  Sb  Sb4       1.0  0.50000  0.50000  0.85313  1.0000
  K   K5        1.0  0.00000  0.50000  0.04896  1.0000
  K   K6        1.0  0.50000  0.75000  0.14687  1.0000
  K   K7        1.0  0.50000  0.25000  0.14687  1.0000
  K   K8        1.0  0.00000  0.00000  0.04896  1.0000
  Na  Na9       1.0  0.25000  0.50000  0.14687  1.0000
  Na  Na10      1.0  0.75000  0.00000  0.14687  1.0000
  Na  Na11      1.0  0.75000  0.50000  0.14687  1.0000
  Na  Na12      1.0  0.25000  0.00000  0.14687  1.0000
  Na  Na13      1.0  0.75000  0.25000  0.04896  1.0000
  Na  Na14      1.0  0.25000  0.75000  0.04896  1.0000
  Na  Na15      1.0  0.25000  0.25000  0.04896  1.0000
  Na  Na16      1.0  0.75000  0.75000  0.04896  1.0000
  Sb  Sb5       1.0  0.00000  0.25000  0.14687  1.0000
  Sb  Sb6       1.0  0.50000  0.50000  0.04896  1.0000
  Sb  Sb7       1.0  0.00000  0.75000  0.14687  1.0000
  Sb  Sb8       1.0  0.50000  0.00000  0.04896  1.0000
  C   C1        1.0  0.25000  0.25000  0.17512  1.0000
