# generated using pymatgen
data_LiMgAlAg
_symmetry_space_group_name_H-M   Pm
_cell_length_a   6.43596000
_cell_length_b   4.55091000
_cell_length_c   26.82640000
_cell_angle_alpha   90.00000000
_cell_angle_beta   90.00000000
_cell_angle_gamma   90.00000000
_symmetry_Int_Tables_number   6
_chemical_formula_structural   LiMgAlAg
_chemical_formula_sum   'Li4 Mg4 Al4 Ag4'
_cell_volume   785.73116473
_cell_formula_units_Z   4
loop_
 _symmetry_equiv_pos_site_id
 _symmetry_equiv_pos_as_xyz
  1  'x, y, z'
  2  'x, -y, z'
loop_
 _atom_site_type_symbol
 _atom_site_label
 _atom_site_symmetry_multiplicity
 _atom_site_fract_x
 _atom_site_fract_y
 _atom_site_fract_z
 _atom_site_occupancy
  Li  Li0  1  0.00000000  0.50000000  0.04241000  1.0
  Li  Li1  1  0.49027000  0.00000000  0.95480500  1.0
  Li  Li2  1  0.50000000  0.00000000  0.12723000  1.0
  Li  Li3  1  0.95062000  0.50000000  0.83804500  1.0
  Mg  Mg4  1  0.22944500  0.00000000  0.86632500  1.0
  Mg  Mg5  1  0.25000000  0.00000000  0.04241000  1.0
  Mg  Mg6  1  0.75000000  0.50000000  0.12723000  1.0
  Mg  Mg7  1  0.75536500  0.50000000  0.95209500  1.0
  Al  Al8  1  0.23878500  0.50000000  0.94920000  1.0
  Al  Al9  1  0.25000000  0.50000000  0.12723000  1.0
  Al  Al10  1  0.74757500  0.00000000  0.87047000  1.0
  Al  Al11  1  0.75000000  0.00000000  0.04241000  1.0
  Ag  Ag12  1  0.00000000  0.00000000  0.12723000  1.0
  Ag  Ag13  1  0.00029500  0.00000000  0.95956000  1.0
  Ag  Ag14  1  0.50000000  0.50000000  0.04241000  1.0
  Ag  Ag15  1  0.50458500  0.50000000  0.86959000  1.0
