data_image0
_chemical_formula_structural       Al16Ir16C
_chemical_formula_sum              "Al16 Ir16 C1"
_cell_length_a       6.03636
_cell_length_b       8.5367
_cell_length_c       26.4025
_cell_angle_alpha    90
_cell_angle_beta     90
_cell_angle_gamma    90

_space_group_name_H-M_alt    "P 1"
_space_group_IT_number       1

loop_
  _space_group_symop_operation_xyz
  'x, y, z'

loop_
  _atom_site_type_symbol
  _atom_site_label
  _atom_site_symmetry_multiplicity
  _atom_site_fract_x
  _atom_site_fract_y
  _atom_site_fract_z
  _atom_site_occupancy
  Al  Al1       1.0  0.00000  0.00000  0.87875  1.0000
  Al  Al2       1.0  0.00000  0.25000  0.95958  1.0000
  Al  Al3       1.0  0.00000  0.00000  0.03975  1.0000
  Al  Al4       1.0  0.00000  0.26632  0.12515  1.0000
  Al  Al5       1.0  0.00000  0.50000  0.87875  1.0000
  Al  Al6       1.0  0.00000  0.75000  0.95958  1.0000
  Al  Al7       1.0  0.00000  0.50000  0.04084  1.0000
  Al  Al8       1.0  1.00000  0.73368  0.12515  1.0000
  Al  Al9       1.0  0.50000  0.00000  0.87875  1.0000
  Al  Al10      1.0  0.50000  0.25000  0.95958  1.0000
  Al  Al11      1.0  0.50000  0.00000  0.03807  1.0000
  Al  Al12      1.0  0.50000  0.25487  0.12626  1.0000
  Al  Al13      1.0  0.50000  0.50000  0.87875  1.0000
  Al  Al14      1.0  0.50000  0.75000  0.95958  1.0000
  Al  Al15      1.0  0.50000  0.50000  0.04029  1.0000
  Al  Al16      1.0  0.50000  0.74513  0.12626  1.0000
  Ir  Ir1       1.0  0.25000  0.25000  0.87875  1.0000
  Ir  Ir2       1.0  0.25000  0.00000  0.95958  1.0000
  Ir  Ir3       1.0  0.25082  0.24447  0.04006  1.0000
  Ir  Ir4       1.0  0.24476  0.00000  0.12242  1.0000
  Ir  Ir5       1.0  0.25000  0.75000  0.87875  1.0000
  Ir  Ir6       1.0  0.25000  0.50000  0.95958  1.0000
  Ir  Ir7       1.0  0.25082  0.75553  0.04006  1.0000
  Ir  Ir8       1.0  0.25423  0.50000  0.11757  1.0000
  Ir  Ir9       1.0  0.75000  0.25000  0.87875  1.0000
  Ir  Ir10      1.0  0.75000  0.00000  0.95958  1.0000
  Ir  Ir11      1.0  0.74918  0.24447  0.04006  1.0000
  Ir  Ir12      1.0  0.75524  1.00000  0.12242  1.0000
  Ir  Ir13      1.0  0.75000  0.75000  0.87875  1.0000
  Ir  Ir14      1.0  0.75000  0.50000  0.95958  1.0000
  Ir  Ir15      1.0  0.74918  0.75553  0.04006  1.0000
  Ir  Ir16      1.0  0.74577  0.50000  0.11757  1.0000
  C   C1        1.0  1.00000  0.00000  0.16761  1.0000
