# generated using pymatgen
data_Y4Sn4Ge4Pd4CO
_symmetry_space_group_name_H-M   'P 1'
_cell_length_a   6.28620000
_cell_length_b   8.65102000
_cell_length_c   24.64860000
_cell_angle_alpha   90.00000000
_cell_angle_beta   90.00000000
_cell_angle_gamma   90.00000000
_symmetry_Int_Tables_number   1
_chemical_formula_structural   Y4Sn4Ge4Pd4CO
_chemical_formula_sum   'Y4 Sn4 Ge4 Pd4 C1 O1'
_cell_volume   1340.44119857
_cell_formula_units_Z   1
loop_
 _symmetry_equiv_pos_site_id
 _symmetry_equiv_pos_as_xyz
  1  'x, y, z'
loop_
 _atom_site_type_symbol
 _atom_site_label
 _atom_site_symmetry_multiplicity
 _atom_site_fract_x
 _atom_site_fract_y
 _atom_site_fract_z
 _atom_site_occupancy
  Y  Y0  1  0.79164000  0.74899000  0.02886000  1.0
  Y  Y1  1  0.37514000  0.75000000  0.90570000  1.0
  Y  Y2  1  0.79060000  0.25073000  0.02863000  1.0
  Y  Y3  1  0.37514000  0.25000000  0.90570000  1.0
  Sn  Sn4  1  0.49430000  0.99992000  0.08974000  1.0
  Sn  Sn5  1  0.08342000  0.00000000  0.96857000  1.0
  Sn  Sn6  1  0.49522000  0.50020000  0.09005000  1.0
  Sn  Sn7  1  0.08342000  0.50000000  0.96857000  1.0
  Ge  Ge8  1  0.05871000  0.00092000  0.08118000  1.0
  Ge  Ge9  1  0.58342000  0.00000000  0.96857000  1.0
  Ge  Ge10  1  0.06069000  0.49834000  0.08163000  1.0
  Ge  Ge11  1  0.58342000  0.50000000  0.96857000  1.0
  Pd  Pd12  1  0.28229000  0.75012000  0.03892000  1.0
  Pd  Pd13  1  0.87514000  0.75000000  0.90570000  1.0
  Pd  Pd14  1  0.28294000  0.24981000  0.03886000  1.0
  Pd  Pd15  1  0.87514000  0.25000000  0.90570000  1.0
  C  C16  1  0.42002000  0.99996000  0.23361000  1.0
  O  O17  1  0.54440000  0.00008000  0.26712000  1.0
