# generated using pymatgen
data_AlFe2Ni
_symmetry_space_group_name_H-M   Pmm2
_cell_length_a   5.78917000
_cell_length_b   8.18712000
_cell_length_c   26.14030000
_cell_angle_alpha   90.00000000
_cell_angle_beta   90.00000000
_cell_angle_gamma   90.00000000
_symmetry_Int_Tables_number   25
_chemical_formula_structural   AlFe2Ni
_chemical_formula_sum   'Al8 Fe16 Ni8'
_cell_volume   1238.96211387
_cell_formula_units_Z   8
loop_
 _symmetry_equiv_pos_site_id
 _symmetry_equiv_pos_as_xyz
  1  'x, y, z'
  2  '-x, -y, z'
  3  '-x, y, z'
  4  'x, -y, z'
loop_
 _atom_site_type_symbol
 _atom_site_label
 _atom_site_symmetry_multiplicity
 _atom_site_fract_x
 _atom_site_fract_y
 _atom_site_fract_z
 _atom_site_occupancy
  Al  Al0  2  0.00000000  0.24990000  0.03862000  1.0
  Al  Al1  2  0.00000000  0.25000000  0.88255000  1.0
  Al  Al2  1  0.50000000  0.00000000  0.13504000  1.0
  Al  Al3  1  0.50000000  0.00000000  0.96085000  1.0
  Al  Al4  1  0.50000000  0.50000000  0.13500000  1.0
  Al  Al5  1  0.50000000  0.50000000  0.96085000  1.0
  Fe  Fe6  4  0.25000000  0.25000000  0.96085000  1.0
  Fe  Fe7  4  0.27377000  0.25000000  0.11383000  1.0
  Fe  Fe8  2  0.25000000  0.00000000  0.88255000  1.0
  Fe  Fe9  2  0.25000000  0.50000000  0.88255000  1.0
  Fe  Fe10  2  0.26909000  0.50000000  0.04559000  1.0
  Fe  Fe11  2  0.26939000  0.00000000  0.04561000  1.0
  Ni  Ni12  2  0.50000000  0.25000000  0.88255000  1.0
  Ni  Ni13  2  0.50000000  0.25009000  0.03020000  1.0
  Ni  Ni14  1  0.00000000  0.00000000  0.11441000  1.0
  Ni  Ni15  1  0.00000000  0.00000000  0.96085000  1.0
  Ni  Ni16  1  0.00000000  0.50000000  0.11444000  1.0
  Ni  Ni17  1  0.00000000  0.50000000  0.96085000  1.0
