# generated using pymatgen
data_Zr8In8Ni16C
_symmetry_space_group_name_H-M   Pm
_cell_length_a   6.34973000
_cell_length_b   8.97987000
_cell_length_c   26.73490000
_cell_angle_alpha   90.00000000
_cell_angle_beta   90.00000000
_cell_angle_gamma   90.00000000
_symmetry_Int_Tables_number   6
_chemical_formula_structural   Zr8In8Ni16C
_chemical_formula_sum   'Zr8 In8 Ni16 C1'
_cell_volume   1524.41731254
_cell_formula_units_Z   1
loop_
 _symmetry_equiv_pos_site_id
 _symmetry_equiv_pos_as_xyz
  1  'x, y, z'
  2  'x, -y, z'
loop_
 _atom_site_type_symbol
 _atom_site_label
 _atom_site_symmetry_multiplicity
 _atom_site_fract_x
 _atom_site_fract_y
 _atom_site_fract_z
 _atom_site_occupancy
  Zr  Zr0  2  0.00000000  0.24999000  0.87404000  1.0
  Zr  Zr1  2  0.98852000  0.25531000  0.04118000  1.0
  Zr  Zr2  1  0.50000000  0.00000000  0.95801000  1.0
  Zr  Zr3  1  0.50000000  0.50000000  0.95801000  1.0
  Zr  Zr4  1  0.50422000  0.50000000  0.12444000  1.0
  Zr  Zr5  1  0.55316000  0.00000000  0.12599000  1.0
  In  In6  2  0.48887000  0.24269000  0.04356000  1.0
  In  In7  2  0.50000000  0.24999000  0.87404000  1.0
  In  In8  1  0.00000000  0.00000000  0.95801000  1.0
  In  In9  1  0.00000000  0.50000000  0.95801000  1.0
  In  In10  1  0.01799000  0.50000000  0.13021000  1.0
  In  In11  1  0.94473000  0.00000000  0.18292000  1.0
  Ni  Ni12  2  0.18456000  0.21042000  0.12310000  1.0
  Ni  Ni13  2  0.25000000  0.24999000  0.95801000  1.0
  Ni  Ni14  2  0.75000000  0.25001000  0.95801000  1.0
  Ni  Ni15  2  0.76225000  0.25705000  0.12261000  1.0
  Ni  Ni16  1  0.21208000  0.00000000  0.05337000  1.0
  Ni  Ni17  1  0.25000000  0.00000000  0.87404000  1.0
  Ni  Ni18  1  0.25000000  0.50000000  0.87404000  1.0
  Ni  Ni19  1  0.27039000  0.50000000  0.04180000  1.0
  Ni  Ni20  1  0.73006000  0.50000000  0.04541000  1.0
  Ni  Ni21  1  0.74991000  0.00000000  0.04100000  1.0
  Ni  Ni22  1  0.75000000  0.00000000  0.87404000  1.0
  Ni  Ni23  1  0.75000000  0.50000000  0.87404000  1.0
  C  C24  1  0.22104000  0.00000000  0.12698000  1.0
