# generated using pymatgen
data_Ti8Ga8Co16CO
_symmetry_space_group_name_H-M   Pmm2
_cell_length_a   5.88011000
_cell_length_b   8.31574000
_cell_length_c   26.23680000
_cell_angle_alpha   90.00000000
_cell_angle_beta   90.00000000
_cell_angle_gamma   90.00000000
_symmetry_Int_Tables_number   25
_chemical_formula_structural   Ti8Ga8Co16CO
_chemical_formula_sum   'Ti8 Ga8 Co16 C1 O1'
_cell_volume   1282.91303415
_cell_formula_units_Z   1
loop_
 _symmetry_equiv_pos_site_id
 _symmetry_equiv_pos_as_xyz
  1  'x, y, z'
  2  '-x, -y, z'
  3  '-x, y, z'
  4  'x, -y, z'
loop_
 _atom_site_type_symbol
 _atom_site_label
 _atom_site_symmetry_multiplicity
 _atom_site_fract_x
 _atom_site_fract_y
 _atom_site_fract_z
 _atom_site_occupancy
  Ti  Ti0  2  0.00000000  0.25000000  0.88114000  1.0
  Ti  Ti1  2  0.00000000  0.25254000  0.04106000  1.0
  Ti  Ti2  1  0.50000000  0.00000000  0.11659000  1.0
  Ti  Ti3  1  0.50000000  0.00000000  0.96038000  1.0
  Ti  Ti4  1  0.50000000  0.50000000  0.11765000  1.0
  Ti  Ti5  1  0.50000000  0.50000000  0.96038000  1.0
  Ga  Ga6  2  0.50000000  0.25000000  0.88114000  1.0
  Ga  Ga7  2  0.50000000  0.25009000  0.04015000  1.0
  Ga  Ga8  1  0.00000000  0.00000000  0.11685000  1.0
  Ga  Ga9  1  0.00000000  0.00000000  0.96038000  1.0
  Ga  Ga10  1  0.00000000  0.50000000  0.12276000  1.0
  Ga  Ga11  1  0.00000000  0.50000000  0.96038000  1.0
  Co  Co12  4  0.24441000  0.25284000  0.11354000  1.0
  Co  Co13  4  0.25000000  0.25000000  0.96038000  1.0
  Co  Co14  2  0.25000000  0.00000000  0.88114000  1.0
  Co  Co15  2  0.25000000  0.50000000  0.88114000  1.0
  Co  Co16  2  0.25405000  0.50000000  0.03970000  1.0
  Co  Co17  2  0.25493000  0.00000000  0.03955000  1.0
  C  C18  1  0.00000000  0.00000000  0.19597000  1.0
  O  O19  1  0.00000000  0.00000000  0.23954000  1.0
