# generated using pymatgen
data_Li8Ag16Ge8CO
_symmetry_space_group_name_H-M   'P 1'
_cell_length_a   9.21240000
_cell_length_b   6.51415000
_cell_length_c   26.90930000
_cell_angle_alpha   90.00000000
_cell_angle_beta   90.00000000
_cell_angle_gamma   90.00000000
_symmetry_Int_Tables_number   1
_chemical_formula_structural   Li8Ag16Ge8CO
_chemical_formula_sum   'Li8 Ag16 Ge8 C1 O1'
_cell_volume   1614.85280376
_cell_formula_units_Z   1
loop_
 _symmetry_equiv_pos_site_id
 _symmetry_equiv_pos_as_xyz
  1  'x, y, z'
loop_
 _atom_site_type_symbol
 _atom_site_label
 _atom_site_symmetry_multiplicity
 _atom_site_fract_x
 _atom_site_fract_y
 _atom_site_fract_z
 _atom_site_occupancy
  Li  Li0  1  0.00000000  0.00000000  0.12838000  1.0
  Li  Li1  1  0.25000000  0.50000000  0.04279000  1.0
  Li  Li2  1  0.75000000  0.50000000  0.04279000  1.0
  Li  Li3  1  0.50000000  0.00000000  0.12838000  1.0
  Li  Li4  1  0.50000000  0.00028000  0.95828000  1.0
  Li  Li5  1  0.75010000  0.50648000  0.87155000  1.0
  Li  Li6  1  0.24990000  0.50648000  0.87155000  1.0
  Li  Li7  1  0.00000000  0.00723000  0.96006000  1.0
  Ag  Ag8  1  0.00000000  0.25000000  0.04279000  1.0
  Ag  Ag9  1  0.50000000  0.75000000  0.04279000  1.0
  Ag  Ag10  1  0.00000000  0.75000000  0.04279000  1.0
  Ag  Ag11  1  0.50000000  0.25000000  0.04279000  1.0
  Ag  Ag12  1  0.75000000  0.75000000  0.12838000  1.0
  Ag  Ag13  1  0.25000000  0.25000000  0.12838000  1.0
  Ag  Ag14  1  0.75000000  0.25000000  0.12838000  1.0
  Ag  Ag15  1  0.25000000  0.75000000  0.12838000  1.0
  Ag  Ag16  1  0.50000000  0.24508000  0.87319000  1.0
  Ag  Ag17  1  0.00000000  0.77597000  0.87753000  1.0
  Ag  Ag18  1  0.50000000  0.75178000  0.87348000  1.0
  Ag  Ag19  1  0.00000000  0.23477000  0.87180000  1.0
  Ag  Ag20  1  0.25068000  0.75914000  0.95589000  1.0
  Ag  Ag21  1  0.75108000  0.24038000  0.95366000  1.0
  Ag  Ag22  1  0.24892000  0.24038000  0.95366000  1.0
  Ag  Ag23  1  0.74932000  0.75914000  0.95589000  1.0
  Ge  Ge24  1  0.75000000  0.00000000  0.04279000  1.0
  Ge  Ge25  1  0.00000000  0.50000000  0.12838000  1.0
  Ge  Ge26  1  0.25000000  0.00000000  0.04279000  1.0
  Ge  Ge27  1  0.50000000  0.50000000  0.12838000  1.0
  Ge  Ge28  1  0.25535000  0.99329000  0.86865000  1.0
  Ge  Ge29  1  0.50000000  0.49804000  0.95614000  1.0
  Ge  Ge30  1  0.74465000  0.99329000  0.86865000  1.0
  Ge  Ge31  1  0.00000000  0.49775000  0.95532000  1.0
  C  C32  1  0.00000000  0.30101000  0.78479000  1.0
  O  O33  1  0.00000000  0.22842000  0.74617000  1.0
