# generated using pymatgen
data_Sc8Ga8Cu16C
_symmetry_space_group_name_H-M   'P 1'
_cell_length_a   8.81761000
_cell_length_b   6.23499000
_cell_length_c   26.61320000
_cell_angle_alpha   90.00000000
_cell_angle_beta   90.00000000
_cell_angle_gamma   90.00000000
_symmetry_Int_Tables_number   1
_chemical_formula_structural   Sc8Ga8Cu16C
_chemical_formula_sum   'Sc8 Ga8 Cu16 C1'
_cell_volume   1463.13279640
_cell_formula_units_Z   1
loop_
 _symmetry_equiv_pos_site_id
 _symmetry_equiv_pos_as_xyz
  1  'x, y, z'
loop_
 _atom_site_type_symbol
 _atom_site_label
 _atom_site_symmetry_multiplicity
 _atom_site_fract_x
 _atom_site_fract_y
 _atom_site_fract_z
 _atom_site_occupancy
  Sc  Sc0  1  0.00000000  0.00000000  0.12425000  1.0
  Sc  Sc1  1  0.25000000  0.50000000  0.04142000  1.0
  Sc  Sc2  1  0.75000000  0.50000000  0.04142000  1.0
  Sc  Sc3  1  0.50000000  0.00000000  0.12425000  1.0
  Sc  Sc4  1  0.50000000  0.99991000  0.94742000  1.0
  Sc  Sc5  1  0.71320000  0.49999000  0.87591000  1.0
  Sc  Sc6  1  0.28680000  0.49999000  0.87591000  1.0
  Sc  Sc7  1  0.00000000  0.00000000  0.95776000  1.0
  Ga  Ga8  1  0.75000000  0.00000000  0.04142000  1.0
  Ga  Ga9  1  0.00000000  0.50000000  0.12425000  1.0
  Ga  Ga10  1  0.25000000  0.00000000  0.04142000  1.0
  Ga  Ga11  1  0.50000000  0.50000000  0.12425000  1.0
  Ga  Ga12  1  0.23588000  0.99996000  0.87643000  1.0
  Ga  Ga13  1  0.50000000  0.50004000  0.96150000  1.0
  Ga  Ga14  1  0.76412000  0.99996000  0.87643000  1.0
  Ga  Ga15  1  0.00000000  0.50001000  0.96202000  1.0
  Cu  Cu16  1  0.00000000  0.25000000  0.04142000  1.0
  Cu  Cu17  1  0.50000000  0.75000000  0.04142000  1.0
  Cu  Cu18  1  0.00000000  0.75000000  0.04142000  1.0
  Cu  Cu19  1  0.50000000  0.25000000  0.04142000  1.0
  Cu  Cu20  1  0.75000000  0.75000000  0.12425000  1.0
  Cu  Cu21  1  0.25000000  0.25000000  0.12425000  1.0
  Cu  Cu22  1  0.75000000  0.25000000  0.12425000  1.0
  Cu  Cu23  1  0.25000000  0.75000000  0.12425000  1.0
  Cu  Cu24  1  0.50000000  0.19911000  0.85317000  1.0
  Cu  Cu25  1  0.00000000  0.69594000  0.87556000  1.0
  Cu  Cu26  1  0.50000000  0.80086000  0.85317000  1.0
  Cu  Cu27  1  0.00000000  0.30407000  0.87556000  1.0
  Cu  Cu28  1  0.25009000  0.74593000  0.95954000  1.0
  Cu  Cu29  1  0.74992000  0.25406000  0.95954000  1.0
  Cu  Cu30  1  0.25008000  0.25406000  0.95954000  1.0
  Cu  Cu31  1  0.74991000  0.74593000  0.95954000  1.0
  C  C32  1  0.00000000  0.00000000  0.86993000  1.0
