# generated using pymatgen
data_LiNiGePd
_symmetry_space_group_name_H-M   Pm
_cell_length_a   5.93854000
_cell_length_b   4.19918000
_cell_length_c   26.29880000
_cell_angle_alpha   90.00000000
_cell_angle_beta   90.00000000
_cell_angle_gamma   90.00000000
_symmetry_Int_Tables_number   6
_chemical_formula_structural   LiNiGePd
_chemical_formula_sum   'Li4 Ni4 Ge4 Pd4'
_cell_volume   655.81313345
_cell_formula_units_Z   4
loop_
 _symmetry_equiv_pos_site_id
 _symmetry_equiv_pos_as_xyz
  1  'x, y, z'
  2  'x, -y, z'
loop_
 _atom_site_type_symbol
 _atom_site_label
 _atom_site_symmetry_multiplicity
 _atom_site_fract_x
 _atom_site_fract_y
 _atom_site_fract_z
 _atom_site_occupancy
  Li  Li0  1  0.00000000  0.50000000  0.03992000  1.0
  Li  Li1  1  0.00481000  0.50000000  0.86666000  1.0
  Li  Li2  1  0.50000000  0.00000000  0.11975000  1.0
  Li  Li3  1  0.50117000  0.00000000  0.96391500  1.0
  Ni  Ni4  1  0.25000000  0.00000000  0.03992000  1.0
  Ni  Ni5  1  0.27176000  0.00000000  0.88938000  1.0
  Ni  Ni6  1  0.74907500  0.50000000  0.95851500  1.0
  Ni  Ni7  1  0.75000000  0.50000000  0.11975000  1.0
  Ge  Ge8  1  0.00000000  0.00000000  0.11975000  1.0
  Ge  Ge9  1  0.48430500  0.50000000  0.87741500  1.0
  Ge  Ge10  1  0.50000000  0.50000000  0.03992000  1.0
  Ge  Ge11  1  0.99550000  0.00000000  0.95845000  1.0
  Pd  Pd12  1  0.24698000  0.50000000  0.96045000  1.0
  Pd  Pd13  1  0.25000000  0.50000000  0.11975000  1.0
  Pd  Pd14  1  0.72785000  0.00000000  0.88409000  1.0
  Pd  Pd15  1  0.75000000  0.00000000  0.03992000  1.0
