# generated using pymatgen
data_Li4In4Ge4Au4CO
_symmetry_space_group_name_H-M   Pm
_cell_length_a   5.96101000
_cell_length_b   8.57796000
_cell_length_c   24.47060000
_cell_angle_alpha   90.00000000
_cell_angle_beta   90.00000000
_cell_angle_gamma   90.00000000
_symmetry_Int_Tables_number   6
_chemical_formula_structural   Li4In4Ge4Au4CO
_chemical_formula_sum   'Li4 In4 Ge4 Au4 C1 O1'
_cell_volume   1251.26266164
_cell_formula_units_Z   1
loop_
 _symmetry_equiv_pos_site_id
 _symmetry_equiv_pos_as_xyz
  1  'x, y, z'
  2  'x, -y, z'
loop_
 _atom_site_type_symbol
 _atom_site_label
 _atom_site_symmetry_multiplicity
 _atom_site_fract_x
 _atom_site_fract_y
 _atom_site_fract_z
 _atom_site_occupancy
  Li  Li0  1  0.50395000  0.50000000  0.09066000  1.0
  Li  Li1  1  0.50598000  0.00000000  0.08690000  1.0
  Li  Li2  1  0.99580000  0.00000000  0.96955000  1.0
  Li  Li3  1  0.99580000  0.50000000  0.96955000  1.0
  In  In4  2  0.24898000  0.25112000  0.03237000  1.0
  In  In5  2  0.74371000  0.24999000  0.90865000  1.0
  Ge  Ge6  2  0.24371000  0.24999000  0.90865000  1.0
  Ge  Ge7  2  0.73087000  0.24999000  0.03955000  1.0
  Au  Au8  1  0.49580000  0.00000000  0.96955000  1.0
  Au  Au9  1  0.49580000  0.50000000  0.96955000  1.0
  Au  Au10  1  0.97368000  0.50000000  0.07519000  1.0
  Au  Au11  1  0.97678000  0.00000000  0.07530000  1.0
  C  C12  1  0.49279000  0.50000000  0.17699000  1.0
  O  O13  1  0.49973000  0.50000000  0.22347000  1.0
