# generated using pymatgen
data_Li16Al8Pt8CO
_symmetry_space_group_name_H-M   P1
_cell_length_a   6.07419000
_cell_length_b   8.59020000
_cell_length_c   26.44270000
_cell_angle_alpha   90.00000000
_cell_angle_beta   90.00000000
_cell_angle_gamma   90.00000000
_symmetry_Int_Tables_number   1
_chemical_formula_structural   Li16Al8Pt8CO
_chemical_formula_sum   'Li16 Al8 Pt8 C1 O1'
_cell_volume   1379.74060541
_cell_formula_units_Z   1
loop_
 _symmetry_equiv_pos_site_id
 _symmetry_equiv_pos_as_xyz
  1  'x, y, z'
loop_
 _atom_site_type_symbol
 _atom_site_label
 _atom_site_symmetry_multiplicity
 _atom_site_fract_x
 _atom_site_fract_y
 _atom_site_fract_z
 _atom_site_occupancy
  Li  Li0  1  0.00000000  0.25000000  0.95939000  1.0
  Li  Li1  1  0.00000000  0.75000000  0.95939000  1.0
  Li  Li2  1  0.24878000  0.50004000  0.12443000  1.0
  Li  Li3  1  0.25000000  0.00000000  0.95939000  1.0
  Li  Li4  1  0.25000000  0.50000000  0.95939000  1.0
  Li  Li5  1  0.25809000  0.00004000  0.12223000  1.0
  Li  Li6  1  0.49396000  0.99999000  0.03638000  1.0
  Li  Li7  1  0.49768000  0.50003000  0.03786000  1.0
  Li  Li8  1  0.50000000  0.00000000  0.87818000  1.0
  Li  Li9  1  0.50000000  0.50000000  0.87818000  1.0
  Li  Li10  1  0.75000000  0.25000000  0.87818000  1.0
  Li  Li11  1  0.75000000  0.75000000  0.87818000  1.0
  Li  Li12  1  0.76074000  0.75035000  0.03886000  1.0
  Li  Li13  1  0.76075000  0.24964000  0.03884000  1.0
  Li  Li14  1  0.98404000  0.75639000  0.13116000  1.0
  Li  Li15  1  0.98410000  0.24366000  0.13107000  1.0
  Al  Al16  1  0.00000000  0.00000000  0.87818000  1.0
  Al  Al17  1  0.00000000  0.50000000  0.87818000  1.0
  Al  Al18  1  0.00201000  0.50002000  0.04074000  1.0
  Al  Al19  1  0.00308000  0.99999000  0.04005000  1.0
  Al  Al20  1  0.50000000  0.25000000  0.95939000  1.0
  Al  Al21  1  0.50000000  0.75000000  0.95939000  1.0
  Al  Al22  1  0.51673000  0.74777000  0.11868000  1.0
  Al  Al23  1  0.51700000  0.25235000  0.11866000  1.0
  Pt  Pt24  1  0.24594000  0.75110000  0.04281000  1.0
  Pt  Pt25  1  0.24597000  0.24890000  0.04279000  1.0
  Pt  Pt26  1  0.25000000  0.25000000  0.87818000  1.0
  Pt  Pt27  1  0.25000000  0.75000000  0.87818000  1.0
  Pt  Pt28  1  0.72964000  0.99991000  0.11226000  1.0
  Pt  Pt29  1  0.73854000  0.50020000  0.11476000  1.0
  Pt  Pt30  1  0.75000000  0.00000000  0.95939000  1.0
  Pt  Pt31  1  0.75000000  0.50000000  0.95939000  1.0
  C  C32  1  0.18847000  0.99980000  0.19757000  1.0
  O  O33  1  0.17153000  0.99973000  0.24068000  1.0
