# generated using pymatgen
data_Li8Ag4Sn4CO
_symmetry_space_group_name_H-M   Pm
_cell_length_a   6.59455000
_cell_length_b   6.59455000
_cell_length_c   24.94590000
_cell_angle_alpha   90.00000000
_cell_angle_beta   90.00000000
_cell_angle_gamma   90.00000000
_symmetry_Int_Tables_number   6
_chemical_formula_structural   Li8Ag4Sn4CO
_chemical_formula_sum   'Li8 Ag4 Sn4 C1 O1'
_cell_volume   1084.84953691
_cell_formula_units_Z   1
loop_
 _symmetry_equiv_pos_site_id
 _symmetry_equiv_pos_as_xyz
  1  'x, y, z'
  2  'x, -y, z'
loop_
 _atom_site_type_symbol
 _atom_site_label
 _atom_site_symmetry_multiplicity
 _atom_site_fract_x
 _atom_site_fract_y
 _atom_site_fract_z
 _atom_site_occupancy
  Li  Li0  2  0.24841000  0.24850000  0.03254000  1.0
  Li  Li1  2  0.25000000  0.25003000  0.90087000  1.0
  Li  Li2  2  0.75000000  0.24997000  0.90087000  1.0
  Li  Li3  2  0.75154000  0.24846000  0.03254000  1.0
  Ag  Ag4  1  0.00000000  0.50000000  0.96696000  1.0
  Ag  Ag5  1  0.50000000  0.00000000  0.96696000  1.0
  Ag  Ag6  1  0.50002000  0.50000000  0.09416000  1.0
  Ag  Ag7  1  0.99990000  0.00000000  0.09640000  1.0
  Sn  Sn8  1  0.00000000  0.00000000  0.96696000  1.0
  Sn  Sn9  1  0.49999000  0.00000000  0.10103000  1.0
  Sn  Sn10  1  0.50000000  0.50000000  0.96696000  1.0
  Sn  Sn11  1  0.99997000  0.50000000  0.10104000  1.0
  C  C12  1  0.00070000  0.00000000  0.21722000  1.0
  O  O13  1  0.99988000  0.00000000  0.26281000  1.0
