# generated using pymatgen
data_Zr8Ni16Sn8CO
_symmetry_space_group_name_H-M   Pmm2
_cell_length_a   6.34847000
_cell_length_b   8.97809000
_cell_length_c   26.73360000
_cell_angle_alpha   90.00000000
_cell_angle_beta   90.00000000
_cell_angle_gamma   90.00000000
_symmetry_Int_Tables_number   25
_chemical_formula_structural   Zr8Ni16Sn8CO
_chemical_formula_sum   'Zr8 Ni16 Sn8 C1 O1'
_cell_volume   1523.73860883
_cell_formula_units_Z   1
loop_
 _symmetry_equiv_pos_site_id
 _symmetry_equiv_pos_as_xyz
  1  'x, y, z'
  2  '-x, -y, z'
  3  '-x, y, z'
  4  'x, -y, z'
loop_
 _atom_site_type_symbol
 _atom_site_label
 _atom_site_symmetry_multiplicity
 _atom_site_fract_x
 _atom_site_fract_y
 _atom_site_fract_z
 _atom_site_occupancy
  Zr  Zr0  2  0.00000000  0.25000000  0.87406000  1.0
  Zr  Zr1  2  0.00000000  0.25334000  0.04184000  1.0
  Zr  Zr2  1  0.50000000  0.00000000  0.12645000  1.0
  Zr  Zr3  1  0.50000000  0.00000000  0.95802000  1.0
  Zr  Zr4  1  0.50000000  0.50000000  0.12843000  1.0
  Zr  Zr5  1  0.50000000  0.50000000  0.95802000  1.0
  Ni  Ni6  4  0.25000000  0.25000000  0.95802000  1.0
  Ni  Ni7  4  0.25255000  0.25202000  0.12022000  1.0
  Ni  Ni8  2  0.23666000  0.00000000  0.04359000  1.0
  Ni  Ni9  2  0.25000000  0.50000000  0.87406000  1.0
  Ni  Ni10  2  0.25000000  0.00000000  0.87406000  1.0
  Ni  Ni11  2  0.26564000  0.50000000  0.04623000  1.0
  Sn  Sn12  2  0.50000000  0.24613000  0.04079000  1.0
  Sn  Sn13  2  0.50000000  0.25000000  0.87406000  1.0
  Sn  Sn14  1  0.00000000  0.00000000  0.13291000  1.0
  Sn  Sn15  1  0.00000000  0.00000000  0.95802000  1.0
  Sn  Sn16  1  0.00000000  0.50000000  0.13144000  1.0
  Sn  Sn17  1  0.00000000  0.50000000  0.95802000  1.0
  C  C18  1  0.50000000  0.00000000  0.21252000  1.0
  O  O19  1  0.50000000  0.00000000  0.25552000  1.0
