# generated using pymatgen
data_Co8Pt8CO
_symmetry_space_group_name_H-M   'P 1'
_cell_length_a   5.44968000
_cell_length_b   5.44968000
_cell_length_c   25.60700000
_cell_angle_alpha   90.00000000
_cell_angle_beta   90.00000000
_cell_angle_gamma   90.00000000
_symmetry_Int_Tables_number   1
_chemical_formula_structural   Co8Pt8CO
_chemical_formula_sum   'Co8 Pt8 C1 O1'
_cell_volume   760.50260291
_cell_formula_units_Z   1
loop_
 _symmetry_equiv_pos_site_id
 _symmetry_equiv_pos_as_xyz
  1  'x, y, z'
loop_
 _atom_site_type_symbol
 _atom_site_label
 _atom_site_symmetry_multiplicity
 _atom_site_fract_x
 _atom_site_fract_y
 _atom_site_fract_z
 _atom_site_occupancy
  Co  Co0  1  0.00000000  0.00000000  0.94395000  1.0
  Co  Co1  1  0.00000000  0.00000000  0.08992000  1.0
  Co  Co2  1  0.00000000  0.50000000  0.94395000  1.0
  Co  Co3  1  0.00000000  0.50000000  0.08992000  1.0
  Co  Co4  1  0.50000000  0.00000000  0.94395000  1.0
  Co  Co5  1  0.50000000  0.00000000  0.08992000  1.0
  Co  Co6  1  0.50000000  0.50000000  0.94395000  1.0
  Co  Co7  1  0.50000000  0.50000000  0.08992000  1.0
  Pt  Pt8  1  0.75000000  0.75000000  0.87096000  1.0
  Pt  Pt9  1  0.75000000  0.75000000  0.01693000  1.0
  Pt  Pt10  1  0.75000000  0.25000000  0.87096000  1.0
  Pt  Pt11  1  0.75000000  0.25000000  0.01693000  1.0
  Pt  Pt12  1  0.25000000  0.75000000  0.87096000  1.0
  Pt  Pt13  1  0.25000000  0.75000000  0.01693000  1.0
  Pt  Pt14  1  0.25000000  0.25000000  0.87096000  1.0
  Pt  Pt15  1  0.25000000  0.25000000  0.01693000  1.0
  C  C16  1  0.00000000  0.00000000  0.16412000  1.0
  O  O17  1  0.00000000  0.00000000  0.20903000  1.0
