# generated using pymatgen
data_Ti4Pt12C
_symmetry_space_group_name_H-M   'P 1'
_cell_length_a   7.94591000
_cell_length_b   5.61861000
_cell_length_c   24.21400000
_cell_angle_alpha   90.00000000
_cell_angle_beta   90.00000000
_cell_angle_gamma   90.00000000
_symmetry_Int_Tables_number   1
_chemical_formula_structural   Ti4Pt12C
_chemical_formula_sum   'Ti4 Pt12 C1'
_cell_volume   1081.03328869
_cell_formula_units_Z   1
loop_
 _symmetry_equiv_pos_site_id
 _symmetry_equiv_pos_as_xyz
  1  'x, y, z'
loop_
 _atom_site_type_symbol
 _atom_site_label
 _atom_site_symmetry_multiplicity
 _atom_site_fract_x
 _atom_site_fract_y
 _atom_site_fract_z
 _atom_site_occupancy
  Ti  Ti0  1  0.71970000  0.98540000  0.08250000  1.0
  Ti  Ti1  1  0.74999000  0.50000000  0.97099000  1.0
  Ti  Ti2  1  0.28030000  0.98540000  0.08250000  1.0
  Ti  Ti3  1  0.25001000  0.50000000  0.97099000  1.0
  Pt  Pt4  1  0.73255000  0.50763000  0.08413000  1.0
  Pt  Pt5  1  0.50000000  0.24129000  0.02954000  1.0
  Pt  Pt6  1  0.50000000  0.74732000  0.01999000  1.0
  Pt  Pt7  1  0.74999000  0.00000000  0.97099000  1.0
  Pt  Pt8  1  0.50000000  0.75000000  0.91298000  1.0
  Pt  Pt9  1  0.50000000  0.25000000  0.91298000  1.0
  Pt  Pt10  1  0.26745000  0.50763000  0.08413000  1.0
  Pt  Pt11  1  0.00000000  0.25638000  0.03899000  1.0
  Pt  Pt12  1  0.00000000  0.76790000  0.04450000  1.0
  Pt  Pt13  1  0.25001000  0.00000000  0.97099000  1.0
  Pt  Pt14  1  0.00000000  0.75000000  0.91298000  1.0
  Pt  Pt15  1  0.00000000  0.25000000  0.91298000  1.0
  C  C16  1  0.50000000  0.75369000  0.10513000  1.0
