# generated using pymatgen
data_Mn16Pd16CO
_symmetry_space_group_name_H-M   Pm
_cell_length_a   8.60668000
_cell_length_b   6.84086000
_cell_length_c   26.45500000
_cell_angle_alpha   90.00000000
_cell_angle_beta   90.00000000
_cell_angle_gamma   90.00000000
_symmetry_Int_Tables_number   6
_chemical_formula_structural   Mn16Pd16CO
_chemical_formula_sum   'Mn16 Pd16 C1 O1'
_cell_volume   1557.59349385
_cell_formula_units_Z   1
loop_
 _symmetry_equiv_pos_site_id
 _symmetry_equiv_pos_as_xyz
  1  'x, y, z'
  2  'x, -y, z'
loop_
 _atom_site_type_symbol
 _atom_site_label
 _atom_site_symmetry_multiplicity
 _atom_site_fract_x
 _atom_site_fract_y
 _atom_site_fract_z
 _atom_site_occupancy
  Mn  Mn0  1  0.00000000  0.50000000  0.87800000  1.0
  Mn  Mn1  1  0.00000000  0.00000000  0.87800000  1.0
  Mn  Mn2  1  0.00074000  0.00000000  0.03721000  1.0
  Mn  Mn3  1  0.23555000  0.50000000  0.12109000  1.0
  Mn  Mn4  1  0.25000000  0.00000000  0.95933000  1.0
  Mn  Mn5  1  0.25000000  0.50000000  0.95933000  1.0
  Mn  Mn6  1  0.26200000  0.00000000  0.11775000  1.0
  Mn  Mn7  1  0.49700000  0.00000000  0.04244000  1.0
  Mn  Mn8  1  0.49963000  0.50000000  0.03831000  1.0
  Mn  Mn9  1  0.50000000  0.00000000  0.87800000  1.0
  Mn  Mn10  1  0.50000000  0.50000000  0.87800000  1.0
  Mn  Mn11  1  0.73195000  0.00000000  0.11880000  1.0
  Mn  Mn12  1  0.75000000  0.00000000  0.95933000  1.0
  Mn  Mn13  1  0.75000000  0.50000000  0.95933000  1.0
  Mn  Mn14  1  0.75889000  0.50000000  0.12058000  1.0
  Mn  Mn15  1  0.99897000  0.50000000  0.04093000  1.0
  Pd  Pd16  2  -0.00000000  0.24999000  0.95933000  1.0
  Pd  Pd17  2  0.25000000  0.24999000  0.87800000  1.0
  Pd  Pd18  2  0.25044000  0.25289000  0.03906000  1.0
  Pd  Pd19  2  0.49781000  0.26702000  0.11609000  1.0
  Pd  Pd20  2  0.50000000  0.24999000  0.95933000  1.0
  Pd  Pd21  2  0.74718000  0.24819000  0.03935000  1.0
  Pd  Pd22  2  0.75000000  0.24999000  0.87800000  1.0
  Pd  Pd23  2  0.99723000  0.23392000  0.11581000  1.0
  C  C24  1  0.26705000  0.50000000  0.19562000  1.0
  O  O25  1  0.27404000  0.50000000  0.23911000  1.0
