# generated using pymatgen
data_ScInGaPd
_symmetry_space_group_name_H-M   Pm
_cell_length_a   6.68246000
_cell_length_b   4.72521000
_cell_length_c   27.08780000
_cell_angle_alpha   90.00000000
_cell_angle_beta   90.00000000
_cell_angle_gamma   90.00000000
_symmetry_Int_Tables_number   6
_chemical_formula_structural   ScInGaPd
_chemical_formula_sum   'Sc4 In4 Ga4 Pd4'
_cell_volume   855.32509920
_cell_formula_units_Z   4
loop_
 _symmetry_equiv_pos_site_id
 _symmetry_equiv_pos_as_xyz
  1  'x, y, z'
  2  'x, -y, z'
loop_
 _atom_site_type_symbol
 _atom_site_label
 _atom_site_symmetry_multiplicity
 _atom_site_fract_x
 _atom_site_fract_y
 _atom_site_fract_z
 _atom_site_occupancy
  Sc  Sc0  1  0.25000000  0.00000000  0.04361000  1.0
  Sc  Sc1  1  0.25016500  0.00000000  0.87213500  1.0
  Sc  Sc2  1  0.74471500  0.50000000  0.95451500  1.0
  Sc  Sc3  1  0.75000000  0.50000000  0.13083000  1.0
  In  In4  1  0.25000000  0.50000000  0.13083000  1.0
  In  In5  1  0.25943500  0.50000000  0.95633000  1.0
  In  In6  1  0.74899500  0.00000000  0.85894500  1.0
  In  In7  1  0.75000000  0.00000000  0.04361000  1.0
  Ga  Ga8  1  0.00000000  0.00000000  0.13083000  1.0
  Ga  Ga9  1  0.49062000  0.50000000  0.85666500  1.0
  Ga  Ga10  1  0.50000000  0.50000000  0.04361000  1.0
  Ga  Ga11  1  0.98790500  0.00000000  0.95412000  1.0
  Pd  Pd12  1  0.00000000  0.50000000  0.04361000  1.0
  Pd  Pd13  1  0.00111500  0.50000000  0.87605000  1.0
  Pd  Pd14  1  0.50000000  0.00000000  0.13083000  1.0
  Pd  Pd15  1  0.51149500  0.00000000  0.95507000  1.0
