# generated using pymatgen
data_Sc4In4Ni8CO
_symmetry_space_group_name_H-M   P1
_cell_length_a   6.35421000
_cell_length_b   6.35421000
_cell_length_c   24.76570000
_cell_angle_alpha   90.00000000
_cell_angle_beta   90.00000000
_cell_angle_gamma   90.00000000
_symmetry_Int_Tables_number   1
_chemical_formula_structural   Sc4In4Ni8CO
_chemical_formula_sum   'Sc4 In4 Ni8 C1 O1'
_cell_volume   999.93952488
_cell_formula_units_Z   1
loop_
 _symmetry_equiv_pos_site_id
 _symmetry_equiv_pos_as_xyz
  1  'x, y, z'
loop_
 _atom_site_type_symbol
 _atom_site_label
 _atom_site_symmetry_multiplicity
 _atom_site_fract_x
 _atom_site_fract_y
 _atom_site_fract_z
 _atom_site_occupancy
  Sc  Sc0  1  0.00000000  0.50000000  0.96793000  1.0
  Sc  Sc1  1  0.49997000  0.49997000  0.09535000  1.0
  Sc  Sc2  1  0.50000000  0.00000000  0.96793000  1.0
  Sc  Sc3  1  0.99997000  0.00000000  0.09481000  1.0
  In  In4  1  0.00000000  0.00000000  0.96793000  1.0
  In  In5  1  0.49995000  0.99993000  0.09810000  1.0
  In  In6  1  0.50000000  0.50000000  0.96793000  1.0
  In  In7  1  0.99994000  0.49998000  0.09810000  1.0
  Ni  Ni8  1  0.25000000  0.25000000  0.90379000  1.0
  Ni  Ni9  1  0.25000000  0.75000000  0.90379000  1.0
  Ni  Ni10  1  0.25412000  0.74581000  0.03557000  1.0
  Ni  Ni11  1  0.25438000  0.25438000  0.03562000  1.0
  Ni  Ni12  1  0.74540000  0.74558000  0.03558000  1.0
  Ni  Ni13  1  0.74565000  0.25413000  0.03561000  1.0
  Ni  Ni14  1  0.75000000  0.25000000  0.90379000  1.0
  Ni  Ni15  1  0.75000000  0.75000000  0.90379000  1.0
  C  C16  1  0.99992000  0.99994000  0.18936000  1.0
  O  O17  1  0.99992000  0.99993000  0.23572000  1.0
