# generated using pymatgen
data_Li8Zn8Ge8Pd8CO
_symmetry_space_group_name_H-M   'P 1'
_cell_length_a   8.74708000
_cell_length_b   6.18512000
_cell_length_c   26.56030000
_cell_angle_alpha   90.00000000
_cell_angle_beta   90.00000000
_cell_angle_gamma   90.00000000
_symmetry_Int_Tables_number   1
_chemical_formula_structural   Li8Zn8Ge8Pd8CO
_chemical_formula_sum   'Li8 Zn8 Ge8 Pd8 C1 O1'
_cell_volume   1436.95843030
_cell_formula_units_Z   1
loop_
 _symmetry_equiv_pos_site_id
 _symmetry_equiv_pos_as_xyz
  1  'x, y, z'
loop_
 _atom_site_type_symbol
 _atom_site_label
 _atom_site_symmetry_multiplicity
 _atom_site_fract_x
 _atom_site_fract_y
 _atom_site_fract_z
 _atom_site_occupancy
  Li  Li0  1  0.00000000  0.75000000  0.04117000  1.0
  Li  Li1  1  0.50000000  0.75000000  0.04117000  1.0
  Li  Li2  1  0.25000000  0.25000000  0.12350000  1.0
  Li  Li3  1  0.75000000  0.25000000  0.12350000  1.0
  Li  Li4  1  0.50000000  0.69687000  0.83513000  1.0
  Li  Li5  1  0.00000000  0.74461000  0.85818000  1.0
  Li  Li6  1  0.74398000  0.24769000  0.95639000  1.0
  Li  Li7  1  0.25602000  0.24769000  0.95639000  1.0
  Zn  Zn8  1  0.25000000  0.00000000  0.04117000  1.0
  Zn  Zn9  1  0.75000000  0.00000000  0.04117000  1.0
  Zn  Zn10  1  0.50000000  0.50000000  0.12350000  1.0
  Zn  Zn11  1  0.00000000  0.50000000  0.12350000  1.0
  Zn  Zn12  1  0.73058000  0.97031000  0.87462000  1.0
  Zn  Zn13  1  0.26942000  0.97031000  0.87462000  1.0
  Zn  Zn14  1  0.00000000  0.48605000  0.94744000  1.0
  Zn  Zn15  1  0.50000000  0.52286000  0.95411000  1.0
  Ge  Ge16  1  0.00000000  0.00000000  0.12350000  1.0
  Ge  Ge17  1  0.50000000  0.00000000  0.12350000  1.0
  Ge  Ge18  1  0.75000000  0.50000000  0.04117000  1.0
  Ge  Ge19  1  0.25000000  0.50000000  0.04117000  1.0
  Ge  Ge20  1  0.50000000  0.97909000  0.95504000  1.0
  Ge  Ge21  1  0.00000000  0.99519000  0.95325000  1.0
  Ge  Ge22  1  0.25383000  0.50749000  0.87388000  1.0
  Ge  Ge23  1  0.74617000  0.50749000  0.87388000  1.0
  Pd  Pd24  1  0.00000000  0.25000000  0.04117000  1.0
  Pd  Pd25  1  0.50000000  0.25000000  0.04117000  1.0
  Pd  Pd26  1  0.25000000  0.75000000  0.12350000  1.0
  Pd  Pd27  1  0.75000000  0.75000000  0.12350000  1.0
  Pd  Pd28  1  0.50000000  0.25244000  0.88024000  1.0
  Pd  Pd29  1  0.00000000  0.21924000  0.86736000  1.0
  Pd  Pd30  1  0.75909000  0.74244000  0.96250000  1.0
  Pd  Pd31  1  0.24091000  0.74244000  0.96250000  1.0
  C  C32  1  0.00000000  0.18632000  0.79418000  1.0
  O  O33  1  0.00000000  0.18087000  0.75077000  1.0
