# generated using pymatgen
data_Sc8Al24CO
_symmetry_space_group_name_H-M   Pmm2
_cell_length_a   8.18271000
_cell_length_b   8.18271000
_cell_length_c   26.13700000
_cell_angle_alpha   90.00000000
_cell_angle_beta   90.00000000
_cell_angle_gamma   90.00000000
_symmetry_Int_Tables_number   25
_chemical_formula_structural   Sc8Al24CO
_chemical_formula_sum   'Sc8 Al24 C1 O1'
_cell_volume   1750.04839033
_cell_formula_units_Z   1
loop_
 _symmetry_equiv_pos_site_id
 _symmetry_equiv_pos_as_xyz
  1  'x, y, z'
  2  '-x, -y, z'
  3  '-x, y, z'
  4  'x, -y, z'
loop_
 _atom_site_type_symbol
 _atom_site_label
 _atom_site_symmetry_multiplicity
 _atom_site_fract_x
 _atom_site_fract_y
 _atom_site_fract_z
 _atom_site_occupancy
  Sc  Sc0  2  0.25000000  0.00000000  0.03913000  1.0
  Sc  Sc1  2  0.25000000  0.00000000  0.88260000  1.0
  Sc  Sc2  2  0.25000000  0.50000000  0.03913000  1.0
  Sc  Sc3  2  0.25000000  0.50000000  0.88260000  1.0
  Al  Al4  4  0.25000000  0.25000000  0.11740000  1.0
  Al  Al5  4  0.25000000  0.25000000  0.96087000  1.0
  Al  Al6  2  0.00000000  0.25000000  0.03913000  1.0
  Al  Al7  2  0.00000000  0.25000000  0.88260000  1.0
  Al  Al8  2  0.50000000  0.25000000  0.03913000  1.0
  Al  Al9  2  0.50000000  0.25000000  0.88260000  1.0
  Al  Al10  1  0.00000000  0.00000000  0.11740000  1.0
  Al  Al11  1  0.00000000  0.00000000  0.96087000  1.0
  Al  Al12  1  0.00000000  0.50000000  0.11740000  1.0
  Al  Al13  1  0.00000000  0.50000000  0.96087000  1.0
  Al  Al14  1  0.50000000  0.00000000  0.11740000  1.0
  Al  Al15  1  0.50000000  0.00000000  0.96087000  1.0
  Al  Al16  1  0.50000000  0.50000000  0.11740000  1.0
  Al  Al17  1  0.50000000  0.50000000  0.96087000  1.0
  C  C18  1  0.00000000  0.00000000  0.19009000  1.0
  O  O19  1  0.00000000  0.00000000  0.23409000  1.0
