# generated using pymatgen
data_Ti8Ni16Sn8C
_symmetry_space_group_name_H-M   'P 1'
_cell_length_a   8.69561000
_cell_length_b   6.14873000
_cell_length_c   26.52170000
_cell_angle_alpha   90.00000000
_cell_angle_beta   90.00000000
_cell_angle_gamma   90.00000000
_symmetry_Int_Tables_number   1
_chemical_formula_structural   Ti8Ni16Sn8C
_chemical_formula_sum   'Ti8 Ni16 Sn8 C1'
_cell_volume   1418.03462199
_cell_formula_units_Z   1
loop_
 _symmetry_equiv_pos_site_id
 _symmetry_equiv_pos_as_xyz
  1  'x, y, z'
loop_
 _atom_site_type_symbol
 _atom_site_label
 _atom_site_symmetry_multiplicity
 _atom_site_fract_x
 _atom_site_fract_y
 _atom_site_fract_z
 _atom_site_occupancy
  Ti  Ti0  1  0.75000000  0.00000000  0.12295000  1.0
  Ti  Ti1  1  0.00000000  0.50000000  0.04098000  1.0
  Ti  Ti2  1  0.50000000  0.50000000  0.04098000  1.0
  Ti  Ti3  1  0.25000000  0.00000000  0.12295000  1.0
  Ti  Ti4  1  0.25400000  0.99347000  0.95920000  1.0
  Ti  Ti5  1  0.50000000  0.50257000  0.88021000  1.0
  Ti  Ti6  1  0.00000000  0.53231000  0.88452000  1.0
  Ti  Ti7  1  0.74600000  0.99347000  0.95920000  1.0
  Ni  Ni8  1  0.75000000  0.25000000  0.04098000  1.0
  Ni  Ni9  1  0.25000000  0.75000000  0.04098000  1.0
  Ni  Ni10  1  0.75000000  0.75000000  0.04098000  1.0
  Ni  Ni11  1  0.25000000  0.25000000  0.04098000  1.0
  Ni  Ni12  1  0.50000000  0.75000000  0.12295000  1.0
  Ni  Ni13  1  0.00000000  0.25000000  0.12295000  1.0
  Ni  Ni14  1  0.50000000  0.25000000  0.12295000  1.0
  Ni  Ni15  1  0.00000000  0.75000000  0.12295000  1.0
  Ni  Ni16  1  0.22500000  0.21384000  0.88184000  1.0
  Ni  Ni17  1  0.74553000  0.75725000  0.88344000  1.0
  Ni  Ni18  1  0.25447000  0.75725000  0.88344000  1.0
  Ni  Ni19  1  0.77500000  0.21384000  0.88184000  1.0
  Ni  Ni20  1  0.00000000  0.77706000  0.95858000  1.0
  Ni  Ni21  1  0.50000000  0.25837000  0.95724000  1.0
  Ni  Ni22  1  0.00000000  0.19511000  0.94513000  1.0
  Ni  Ni23  1  0.50000000  0.74268000  0.95575000  1.0
  Sn  Sn24  1  0.50000000  1.00000000  0.04098000  1.0
  Sn  Sn25  1  0.75000000  0.50000000  0.12295000  1.0
  Sn  Sn26  1  0.00000000  0.00000000  0.04098000  1.0
  Sn  Sn27  1  0.25000000  0.50000000  0.12295000  1.0
  Sn  Sn28  1  0.00000000  0.91778000  0.83008000  1.0
  Sn  Sn29  1  0.24382000  0.49250000  0.96001000  1.0
  Sn  Sn30  1  0.50000000  0.01572000  0.86777000  1.0
  Sn  Sn31  1  0.75618000  0.49250000  0.96001000  1.0
  C  C32  1  0.00000000  0.22620000  0.86776000  1.0
