# generated using pymatgen
data_Ti8Ni16Sn8C
_symmetry_space_group_name_H-M   Pm
_cell_length_a   6.14873000
_cell_length_b   8.69561000
_cell_length_c   26.52170000
_cell_angle_alpha   90.00000000
_cell_angle_beta   90.00000000
_cell_angle_gamma   90.00000000
_symmetry_Int_Tables_number   6
_chemical_formula_structural   Ti8Ni16Sn8C
_chemical_formula_sum   'Ti8 Ni16 Sn8 C1'
_cell_volume   1418.03462199
_cell_formula_units_Z   1
loop_
 _symmetry_equiv_pos_site_id
 _symmetry_equiv_pos_as_xyz
  1  'x, y, z'
  2  'x, -y, z'
loop_
 _atom_site_type_symbol
 _atom_site_label
 _atom_site_symmetry_multiplicity
 _atom_site_fract_x
 _atom_site_fract_y
 _atom_site_fract_z
 _atom_site_occupancy
  Ti  Ti0  2  0.00000000  0.25000000  0.87705000  1.0
  Ti  Ti1  2  0.99347000  0.25400000  0.04080000  1.0
  Ti  Ti2  1  0.50000000  0.00000000  0.95902000  1.0
  Ti  Ti3  1  0.50000000  0.50000000  0.95902000  1.0
  Ti  Ti4  1  0.50257000  0.50000000  0.11979000  1.0
  Ti  Ti5  1  0.53231000  0.00000000  0.11548000  1.0
  Ni  Ni6  2  0.21384000  0.22500000  0.11816000  1.0
  Ni  Ni7  2  0.25000000  0.25000000  0.95902000  1.0
  Ni  Ni8  2  0.75000000  0.25000000  0.95902000  1.0
  Ni  Ni9  2  0.75725000  0.25447000  0.11656000  1.0
  Ni  Ni10  1  0.19511000  0.00000000  0.05487000  1.0
  Ni  Ni11  1  0.25000000  0.00000000  0.87705000  1.0
  Ni  Ni12  1  0.25000000  0.50000000  0.87705000  1.0
  Ni  Ni13  1  0.25837000  0.50000000  0.04276000  1.0
  Ni  Ni14  1  0.74268000  0.50000000  0.04425000  1.0
  Ni  Ni15  1  0.75000000  0.00000000  0.87705000  1.0
  Ni  Ni16  1  0.75000000  0.50000000  0.87705000  1.0
  Ni  Ni17  1  0.77706000  0.00000000  0.04142000  1.0
  Sn  Sn18  2  0.49250000  0.24382000  0.03999000  1.0
  Sn  Sn19  2  0.50000000  0.25000000  0.87705000  1.0
  Sn  Sn20  1  -0.00000000  0.50000000  0.95902000  1.0
  Sn  Sn21  1  0.00000000  0.00000000  0.95902000  1.0
  Sn  Sn22  1  0.01572000  0.50000000  0.13223000  1.0
  Sn  Sn23  1  0.91778000  0.00000000  0.16992000  1.0
  C  C24  1  0.22620000  0.00000000  0.13224000  1.0
