# generated using pymatgen
data_Mg4Ni8Sn4CO
_symmetry_space_group_name_H-M   P1
_cell_length_a   6.22749000
_cell_length_b   6.22749000
_cell_length_c   24.67060000
_cell_angle_alpha   90.00000000
_cell_angle_beta   90.00000000
_cell_angle_gamma   90.00000000
_symmetry_Int_Tables_number   1
_chemical_formula_structural   Mg4Ni8Sn4CO
_chemical_formula_sum   'Mg4 Ni8 Sn4 C1 O1'
_cell_volume   956.76612302
_cell_formula_units_Z   1
loop_
 _symmetry_equiv_pos_site_id
 _symmetry_equiv_pos_as_xyz
  1  'x, y, z'
loop_
 _atom_site_type_symbol
 _atom_site_label
 _atom_site_symmetry_multiplicity
 _atom_site_fract_x
 _atom_site_fract_y
 _atom_site_fract_z
 _atom_site_occupancy
  Mg  Mg0  1  0.00000000  0.50000000  0.96845000  1.0
  Mg  Mg1  1  0.00003000  0.99999000  0.09739000  1.0
  Mg  Mg2  1  0.50000000  0.00000000  0.96845000  1.0
  Mg  Mg3  1  0.50003000  0.50002000  0.09526000  1.0
  Ni  Ni4  1  0.24883000  0.24883000  0.03387000  1.0
  Ni  Ni5  1  0.24901000  0.75094000  0.03381000  1.0
  Ni  Ni6  1  0.25000000  0.25000000  0.90534000  1.0
  Ni  Ni7  1  0.25000000  0.75000000  0.90534000  1.0
  Ni  Ni8  1  0.75000000  0.25000000  0.90534000  1.0
  Ni  Ni9  1  0.75000000  0.75000000  0.90534000  1.0
  Ni  Ni10  1  0.75100000  0.24900000  0.03383000  1.0
  Ni  Ni11  1  0.75116000  0.75124000  0.03386000  1.0
  Sn  Sn12  1  0.00000000  0.00000000  0.96845000  1.0
  Sn  Sn13  1  0.50000000  0.50000000  0.96845000  1.0
  Sn  Sn14  1  0.50004000  0.99999000  0.09690000  1.0
  Sn  Sn15  1  0.99998000  0.50003000  0.09690000  1.0
  C  C16  1  0.99997000  0.99993000  0.18867000  1.0
  O  O17  1  0.99999000  0.99996000  0.23497000  1.0
