# generated using pymatgen
data_Y4Pt12C
_symmetry_space_group_name_H-M   Pm
_cell_length_a   5.88450000
_cell_length_b   8.32195000
_cell_length_c   24.41340000
_cell_angle_alpha   90.00000000
_cell_angle_beta   90.00000000
_cell_angle_gamma   90.00000000
_symmetry_Int_Tables_number   6
_chemical_formula_structural   Y4Pt12C
_chemical_formula_sum   'Y4 Pt12 C1'
_cell_volume   1195.53676541
_cell_formula_units_Z   1
loop_
 _symmetry_equiv_pos_site_id
 _symmetry_equiv_pos_as_xyz
  1  'x, y, z'
  2  'x, -y, z'
loop_
 _atom_site_type_symbol
 _atom_site_label
 _atom_site_symmetry_multiplicity
 _atom_site_fract_x
 _atom_site_fract_y
 _atom_site_fract_z
 _atom_site_occupancy
  Y  Y0  2  0.00252000  0.24188000  0.91286000  1.0
  Y  Y1  2  0.50000000  0.25001000  0.03013000  1.0
  Pt  Pt2  2  0.00000000  0.25001000  0.03013000  1.0
  Pt  Pt3  2  0.50277000  0.25930000  0.91048000  1.0
  Pt  Pt4  1  0.23857000  0.50000000  0.97061000  1.0
  Pt  Pt5  1  0.25000000  0.00000000  0.09039000  1.0
  Pt  Pt6  1  0.25000000  0.50000000  0.09039000  1.0
  Pt  Pt7  1  0.25363000  0.00000000  0.96407000  1.0
  Pt  Pt8  1  0.75000000  0.00000000  0.09039000  1.0
  Pt  Pt9  1  0.75000000  0.50000000  0.09039000  1.0
  Pt  Pt10  1  0.75113000  0.00000000  0.96425000  1.0
  Pt  Pt11  1  0.76539000  0.50000000  0.97073000  1.0
  C  C12  1  0.50226000  0.50000000  0.91287000  1.0
