data_image0
_chemical_formula_structural       Li4Cu4Sn4Pd4Li4Cu4Sn4Pd4C
_chemical_formula_sum              "Li8 Cu8 Sn8 Pd8 C1"
_cell_length_a       6.33545
_cell_length_b       8.95968
_cell_length_c       26.7198
_cell_angle_alpha    90
_cell_angle_beta     90
_cell_angle_gamma    90

_space_group_name_H-M_alt    "P 1"
_space_group_IT_number       1

loop_
  _space_group_symop_operation_xyz
  'x, y, z'

loop_
  _atom_site_type_symbol
  _atom_site_label
  _atom_site_symmetry_multiplicity
  _atom_site_fract_x
  _atom_site_fract_y
  _atom_site_fract_z
  _atom_site_occupancy
  Li  Li1       1.0  0.25000  0.00000  0.95808  1.0000
  Li  Li2       1.0  0.25000  0.50000  0.95808  1.0000
  Li  Li3       1.0  0.75000  0.25000  0.87425  1.0000
  Li  Li4       1.0  0.75000  0.75000  0.87425  1.0000
  Cu  Cu1       1.0  0.00000  0.00000  0.87425  1.0000
  Cu  Cu2       1.0  1.00000  0.50000  0.87425  1.0000
  Cu  Cu3       1.0  0.50000  0.75000  0.95808  1.0000
  Cu  Cu4       1.0  0.50000  0.25000  0.95808  1.0000
  Sn  Sn1       1.0  0.75000  0.00000  0.95808  1.0000
  Sn  Sn2       1.0  0.75000  0.50000  0.95808  1.0000
  Sn  Sn3       1.0  0.25000  0.25000  0.87425  1.0000
  Sn  Sn4       1.0  0.25000  0.75000  0.87425  1.0000
  Pd  Pd1       1.0  0.00000  0.25000  0.95808  1.0000
  Pd  Pd2       1.0  1.00000  0.75000  0.95808  1.0000
  Pd  Pd3       1.0  0.50000  0.50000  0.87425  1.0000
  Pd  Pd4       1.0  0.50000  0.00000  0.87425  1.0000
  Li  Li5       1.0  0.25000  0.50000  0.12575  1.0000
  Li  Li6       1.0  0.25000  1.00000  0.12575  1.0000
  Li  Li7       1.0  0.75000  0.75000  0.04192  1.0000
  Li  Li8       1.0  0.75000  0.25000  0.04192  1.0000
  Cu  Cu5       1.0  1.00000  0.50000  0.04192  1.0000
  Cu  Cu6       1.0  1.00000  1.00000  0.04192  1.0000
  Cu  Cu7       1.0  0.50000  0.25000  0.12575  1.0000
  Cu  Cu8       1.0  0.50000  0.75000  0.12575  1.0000
  Sn  Sn5       1.0  0.75000  0.50000  0.12575  1.0000
  Sn  Sn6       1.0  0.75000  1.00000  0.12575  1.0000
  Sn  Sn7       1.0  0.25000  0.75000  0.04192  1.0000
  Sn  Sn8       1.0  0.25000  0.25000  0.04192  1.0000
  Pd  Pd5       1.0  1.00000  0.75000  0.12575  1.0000
  Pd  Pd6       1.0  0.00000  0.25000  0.12575  1.0000
  Pd  Pd7       1.0  0.50000  1.00000  0.04192  1.0000
  Pd  Pd8       1.0  0.50000  0.50000  0.04192  1.0000
  C   C1        1.0  0.75000  0.25000  0.15569  1.0000
