# generated using pymatgen
data_Li8Mg8In8Ge8C
_symmetry_space_group_name_H-M   Pmm2
_cell_length_a   8.40992000
_cell_length_b   8.75068000
_cell_length_c   26.31390000
_cell_angle_alpha   90.00000000
_cell_angle_beta   90.00000000
_cell_angle_gamma   90.00000000
_symmetry_Int_Tables_number   25
_chemical_formula_structural   Li8Mg8In8Ge8C
_chemical_formula_sum   'Li8 Mg8 In8 Ge8 C1'
_cell_volume   1936.50617902
_cell_formula_units_Z   1
loop_
 _symmetry_equiv_pos_site_id
 _symmetry_equiv_pos_as_xyz
  1  'x, y, z'
  2  '-x, -y, z'
  3  '-x, y, z'
  4  'x, -y, z'
loop_
 _atom_site_type_symbol
 _atom_site_label
 _atom_site_symmetry_multiplicity
 _atom_site_fract_x
 _atom_site_fract_y
 _atom_site_fract_z
 _atom_site_occupancy
  Li  Li0  2  0.00000000  0.25000000  0.96001000  1.0
  Li  Li1  2  0.00000000  0.25897000  0.13281000  1.0
  Li  Li2  2  0.50000000  0.25000000  0.96001000  1.0
  Li  Li3  2  0.50000000  0.29897000  0.13235000  1.0
  Mg  Mg4  1  0.00000000  0.00000000  0.04087000  1.0
  Mg  Mg5  1  0.00000000  0.00000000  0.88003000  1.0
  Mg  Mg6  1  0.00000000  0.50000000  0.04229000  1.0
  Mg  Mg7  1  0.00000000  0.50000000  0.88003000  1.0
  Mg  Mg8  1  0.50000000  0.00000000  0.03796000  1.0
  Mg  Mg9  1  0.50000000  0.00000000  0.88003000  1.0
  Mg  Mg10  1  0.50000000  0.50000000  0.03974000  1.0
  Mg  Mg11  1  0.50000000  0.50000000  0.88003000  1.0
  In  In12  4  0.25000000  0.25000000  0.88003000  1.0
  In  In13  4  0.25227000  0.25098000  0.04718000  1.0
  Ge  Ge14  2  0.22550000  0.00000000  0.13396000  1.0
  Ge  Ge15  2  0.24502000  0.50000000  0.11921000  1.0
  Ge  Ge16  2  0.25000000  0.00000000  0.96001000  1.0
  Ge  Ge17  2  0.25000000  0.50000000  0.96001000  1.0
  C  C18  1  0.00000000  0.00000000  0.12926000  1.0
