# generated using pymatgen
data_Ni32CO
_symmetry_space_group_name_H-M   'P 1'
_cell_length_a   7.07109000
_cell_length_b   7.07109000
_cell_length_c   25.30330000
_cell_angle_alpha   90.00000000
_cell_angle_beta   90.00000000
_cell_angle_gamma   90.00000000
_symmetry_Int_Tables_number   1
_chemical_formula_structural   Ni32CO
_chemical_formula_sum   'Ni32 C1 O1'
_cell_volume   1265.17293987
_cell_formula_units_Z   1
loop_
 _symmetry_equiv_pos_site_id
 _symmetry_equiv_pos_as_xyz
  1  'x, y, z'
loop_
 _atom_site_type_symbol
 _atom_site_label
 _atom_site_symmetry_multiplicity
 _atom_site_fract_x
 _atom_site_fract_y
 _atom_site_fract_z
 _atom_site_occupancy
  Ni  Ni0  1  0.75000000  0.00000000  0.10479000  1.0
  Ni  Ni1  1  0.00000000  0.25000000  0.10479000  1.0
  Ni  Ni2  1  0.00000000  0.00000000  0.03493000  1.0
  Ni  Ni3  1  0.75000000  0.25000000  0.03493000  1.0
  Ni  Ni4  1  0.75192000  0.00001000  0.96404000  1.0
  Ni  Ni5  1  0.99998000  0.24800000  0.96405000  1.0
  Ni  Ni6  1  0.00000000  0.00000000  0.89072000  1.0
  Ni  Ni7  1  0.74769000  0.25227000  0.89646000  1.0
  Ni  Ni8  1  0.75000000  0.50000000  0.10479000  1.0
  Ni  Ni9  1  0.00000000  0.75000000  0.10479000  1.0
  Ni  Ni10  1  0.00000000  0.50000000  0.03493000  1.0
  Ni  Ni11  1  0.75000000  0.75000000  0.03493000  1.0
  Ni  Ni12  1  0.75086000  0.49996000  0.96445000  1.0
  Ni  Ni13  1  0.00002000  0.75200000  0.96405000  1.0
  Ni  Ni14  1  0.00000000  0.50000000  0.89674000  1.0
  Ni  Ni15  1  0.74770000  0.74772000  0.89645000  1.0
  Ni  Ni16  1  0.25000000  0.00000000  0.10479000  1.0
  Ni  Ni17  1  0.50000000  0.25000000  0.10479000  1.0
  Ni  Ni18  1  0.50000000  0.00000000  0.03493000  1.0
  Ni  Ni19  1  0.25000000  0.25000000  0.03493000  1.0
  Ni  Ni20  1  0.24808000  0.99999000  0.96404000  1.0
  Ni  Ni21  1  0.50001000  0.24908000  0.96442000  1.0
  Ni  Ni22  1  0.50000000  0.00000000  0.89677000  1.0
  Ni  Ni23  1  0.25230000  0.25228000  0.89645000  1.0
  Ni  Ni24  1  0.25000000  0.50000000  0.10479000  1.0
  Ni  Ni25  1  0.50000000  0.75000000  0.10479000  1.0
  Ni  Ni26  1  0.50000000  0.50000000  0.03493000  1.0
  Ni  Ni27  1  0.25000000  0.75000000  0.03493000  1.0
  Ni  Ni28  1  0.24914000  0.50004000  0.96445000  1.0
  Ni  Ni29  1  0.49999000  0.75092000  0.96442000  1.0
  Ni  Ni30  1  0.50000000  0.50000000  0.89664000  1.0
  Ni  Ni31  1  0.25231000  0.74773000  0.89646000  1.0
  C  C32  1  0.00000000  0.00000000  0.82149000  1.0
  O  O33  1  0.00000000  0.00000000  0.77584000  1.0
