# generated using pymatgen
data_Ni32CO
_symmetry_space_group_name_H-M   P2
_cell_length_a   7.07109000
_cell_length_b   25.30330000
_cell_length_c   7.07109000
_cell_angle_alpha   90.00000000
_cell_angle_beta   90.00000000
_cell_angle_gamma   90.00000000
_symmetry_Int_Tables_number   3
_chemical_formula_structural   Ni32CO
_chemical_formula_sum   'Ni32 C1 O1'
_cell_volume   1265.17293987
_cell_formula_units_Z   1
loop_
 _symmetry_equiv_pos_site_id
 _symmetry_equiv_pos_as_xyz
  1  'x, y, z'
  2  '-z, y, x'
  3  '-x, y, -z'
  4  'z, y, -x'
  5  '-x, y, z'
  6  'z, y, x'
  7  'x, y, -z'
  8  '-z, y, -x'
loop_
 _atom_site_type_symbol
 _atom_site_label
 _atom_site_symmetry_multiplicity
 _atom_site_fract_x
 _atom_site_fract_y
 _atom_site_fract_z
 _atom_site_occupancy
  Ni  Ni0  4  0.00000000  0.89521000  0.25000000  1.0
  Ni  Ni1  4  0.00001000  0.03596000  0.75192000  1.0
  Ni  Ni2  4  0.24908000  0.03558000  0.50001000  1.0
  Ni  Ni3  4  0.25000000  0.89521000  0.50000000  1.0
  Ni  Ni4  4  0.25000000  0.96507000  0.25000000  1.0
  Ni  Ni5  4  0.25227000  0.10354000  0.74769000  1.0
  Ni  Ni6  2  0.00000000  0.10323000  0.50000000  1.0
  Ni  Ni7  2  0.00000000  0.96507000  0.50000000  1.0
  Ni  Ni8  1  0.00000000  0.10928000  0.00000000  1.0
  Ni  Ni9  1  0.00000000  0.96507000  0.00000000  1.0
  Ni  Ni10  1  0.50000000  0.10336000  0.50000000  1.0
  Ni  Ni11  1  0.50000000  0.96507000  0.50000000  1.0
  C  C12  1  0.00000000  0.17851000  0.00000000  1.0
  O  O13  1  0.00000000  0.22416000  0.00000000  1.0
