# generated using pymatgen
data_Li8Ag16Sn8C
_symmetry_space_group_name_H-M   Pm
_cell_length_a   6.77071000
_cell_length_b   9.57522000
_cell_length_c   27.18140000
_cell_angle_alpha   90.00000000
_cell_angle_beta   90.00000000
_cell_angle_gamma   90.00000000
_symmetry_Int_Tables_number   6
_chemical_formula_structural   Li8Ag16Sn8C
_chemical_formula_sum   'Li8 Ag16 Sn8 C1'
_cell_volume   1762.19837103
_cell_formula_units_Z   1
loop_
 _symmetry_equiv_pos_site_id
 _symmetry_equiv_pos_as_xyz
  1  'x, y, z'
  2  'x, -y, z'
loop_
 _atom_site_type_symbol
 _atom_site_label
 _atom_site_symmetry_multiplicity
 _atom_site_fract_x
 _atom_site_fract_y
 _atom_site_fract_z
 _atom_site_occupancy
  Li  Li0  2  0.00000000  0.25000000  0.86790000  1.0
  Li  Li1  2  0.00031000  0.25430000  0.03885000  1.0
  Li  Li2  1  0.48610000  0.50000000  0.13078000  1.0
  Li  Li3  1  0.50000000  0.00000000  0.95597000  1.0
  Li  Li4  1  0.50000000  0.50000000  0.95597000  1.0
  Li  Li5  1  0.51112000  0.00000000  0.13312000  1.0
  Ag  Ag6  2  0.22692000  0.23767000  0.12762000  1.0
  Ag  Ag7  2  0.25000000  0.25000000  0.95597000  1.0
  Ag  Ag8  2  0.75000000  0.25000000  0.95597000  1.0
  Ag  Ag9  2  0.76935000  0.26576000  0.12540000  1.0
  Ag  Ag10  1  0.22575000  0.00000000  0.04884000  1.0
  Ag  Ag11  1  0.23569000  0.50000000  0.04912000  1.0
  Ag  Ag12  1  0.25000000  0.00000000  0.86790000  1.0
  Ag  Ag13  1  0.25000000  0.50000000  0.86790000  1.0
  Ag  Ag14  1  0.75000000  0.00000000  0.86790000  1.0
  Ag  Ag15  1  0.75000000  0.50000000  0.86790000  1.0
  Ag  Ag16  1  0.76172000  0.00000000  0.04728000  1.0
  Ag  Ag17  1  0.76697000  0.50000000  0.04986000  1.0
  Sn  Sn18  2  0.50000000  0.25000000  0.86790000  1.0
  Sn  Sn19  2  0.50103000  0.24809000  0.04401000  1.0
  Sn  Sn20  1  0.00000000  0.00000000  0.95597000  1.0
  Sn  Sn21  1  0.00000000  0.50000000  0.95597000  1.0
  Sn  Sn22  1  0.02589000  0.50000000  0.14550000  1.0
  Sn  Sn23  1  0.91980000  0.00000000  0.15972000  1.0
  C  C24  1  0.21378000  0.00000000  0.13487000  1.0
