# generated using pymatgen
data_Li8Al8Ag8Pd8C
_symmetry_space_group_name_H-M   'P 1'
_cell_length_a   8.79558000
_cell_length_b   6.21941000
_cell_length_c   26.59670000
_cell_angle_alpha   90.00000000
_cell_angle_beta   90.00000000
_cell_angle_gamma   90.00000000
_symmetry_Int_Tables_number   1
_chemical_formula_structural   Li8Al8Ag8Pd8C
_chemical_formula_sum   'Li8 Al8 Ag8 Pd8 C1'
_cell_volume   1454.92774338
_cell_formula_units_Z   1
loop_
 _symmetry_equiv_pos_site_id
 _symmetry_equiv_pos_as_xyz
  1  'x, y, z'
loop_
 _atom_site_type_symbol
 _atom_site_label
 _atom_site_symmetry_multiplicity
 _atom_site_fract_x
 _atom_site_fract_y
 _atom_site_fract_z
 _atom_site_occupancy
  Li  Li0  1  0.00000000  0.25000000  0.04134000  1.0
  Li  Li1  1  0.50000000  0.25000000  0.04134000  1.0
  Li  Li2  1  0.25000000  0.75000000  0.12401000  1.0
  Li  Li3  1  0.75000000  0.75000000  0.12401000  1.0
  Li  Li4  1  0.50000000  0.24805000  0.86477000  1.0
  Li  Li5  1  0.00000000  0.23124000  0.84683000  1.0
  Li  Li6  1  0.75405000  0.74724000  0.95911000  1.0
  Li  Li7  1  0.24595000  0.74724000  0.95911000  1.0
  Al  Al8  1  0.00000000  0.75000000  0.04134000  1.0
  Al  Al9  1  0.50000000  0.75000000  0.04134000  1.0
  Al  Al10  1  0.25000000  0.25000000  0.12401000  1.0
  Al  Al11  1  0.75000000  0.25000000  0.12401000  1.0
  Al  Al12  1  0.50000000  0.75754000  0.87922000  1.0
  Al  Al13  1  0.00000000  0.82397000  0.86865000  1.0
  Al  Al14  1  0.74787000  0.25395000  0.95908000  1.0
  Al  Al15  1  0.25213000  0.25395000  0.95908000  1.0
  Ag  Ag16  1  0.00000000  0.00000000  0.12401000  1.0
  Ag  Ag17  1  0.50000000  1.00000000  0.12401000  1.0
  Ag  Ag18  1  0.75000000  0.50000000  0.04134000  1.0
  Ag  Ag19  1  0.25000000  0.50000000  0.04134000  1.0
  Ag  Ag20  1  0.50000000  0.00402000  0.96047000  1.0
  Ag  Ag21  1  0.00000000  0.00920000  0.95947000  1.0
  Ag  Ag22  1  0.25245000  0.50679000  0.87509000  1.0
  Ag  Ag23  1  0.74755000  0.50679000  0.87509000  1.0
  Pd  Pd24  1  0.25000000  0.00000000  0.04134000  1.0
  Pd  Pd25  1  0.75000000  0.00000000  0.04134000  1.0
  Pd  Pd26  1  0.50000000  0.50000000  0.12401000  1.0
  Pd  Pd27  1  0.00000000  0.50000000  0.12401000  1.0
  Pd  Pd28  1  0.74142000  0.00005000  0.88250000  1.0
  Pd  Pd29  1  0.25858000  0.00005000  0.88250000  1.0
  Pd  Pd30  1  0.00000000  0.49777000  0.95803000  1.0
  Pd  Pd31  1  0.50000000  0.49669000  0.95703000  1.0
  C  C32  1  0.00000000  0.52134000  0.87688000  1.0
