# generated using pymatgen
data_Li8Ge8Pd16CO
_symmetry_space_group_name_H-M   'P 1'
_cell_length_a   8.68219000
_cell_length_b   6.13924000
_cell_length_c   26.51160000
_cell_angle_alpha   90.00000000
_cell_angle_beta   90.00000000
_cell_angle_gamma   90.00000000
_symmetry_Int_Tables_number   1
_chemical_formula_structural   Li8Ge8Pd16CO
_chemical_formula_sum   'Li8 Ge8 Pd16 C1 O1'
_cell_volume   1413.12257935
_cell_formula_units_Z   1
loop_
 _symmetry_equiv_pos_site_id
 _symmetry_equiv_pos_as_xyz
  1  'x, y, z'
loop_
 _atom_site_type_symbol
 _atom_site_label
 _atom_site_symmetry_multiplicity
 _atom_site_fract_x
 _atom_site_fract_y
 _atom_site_fract_z
 _atom_site_occupancy
  Li  Li0  1  0.50000000  0.00000000  0.12281000  1.0
  Li  Li1  1  0.75001000  0.50000000  0.04094000  1.0
  Li  Li2  1  0.24999000  0.50000000  0.04094000  1.0
  Li  Li3  1  0.00000000  1.00000000  0.12281000  1.0
  Li  Li4  1  0.00000000  0.00163000  0.96222000  1.0
  Li  Li5  1  0.24812000  0.50307000  0.86712000  1.0
  Li  Li6  1  0.75188000  0.50307000  0.86712000  1.0
  Li  Li7  1  0.50000000  0.00604000  0.96034000  1.0
  Ge  Ge8  1  0.25001000  1.00000000  0.04094000  1.0
  Ge  Ge9  1  0.50000000  0.50000000  0.12281000  1.0
  Ge  Ge10  1  0.74999000  1.00000000  0.04094000  1.0
  Ge  Ge11  1  0.00000000  0.50000000  0.12281000  1.0
  Ge  Ge12  1  0.75337000  0.99227000  0.87795000  1.0
  Ge  Ge13  1  0.00000000  0.49526000  0.95797000  1.0
  Ge  Ge14  1  0.24663000  0.99227000  0.87795000  1.0
  Ge  Ge15  1  0.50000000  0.49913000  0.95865000  1.0
  Pd  Pd16  1  0.50000000  0.25000000  0.04094000  1.0
  Pd  Pd17  1  0.00000000  0.75000000  0.04094000  1.0
  Pd  Pd18  1  0.50000000  0.75000000  0.04094000  1.0
  Pd  Pd19  1  0.00000000  0.25000000  0.04094000  1.0
  Pd  Pd20  1  0.25001000  0.75000000  0.12281000  1.0
  Pd  Pd21  1  0.75001000  0.25000000  0.12281000  1.0
  Pd  Pd22  1  0.24999000  0.25000000  0.12281000  1.0
  Pd  Pd23  1  0.74999000  0.75000000  0.12281000  1.0
  Pd  Pd24  1  0.00000000  0.22962000  0.88344000  1.0
  Pd  Pd25  1  0.50000000  0.76995000  0.88411000  1.0
  Pd  Pd26  1  0.00000000  0.75954000  0.88431000  1.0
  Pd  Pd27  1  0.50000000  0.24746000  0.87372000  1.0
  Pd  Pd28  1  0.74865000  0.74674000  0.96037000  1.0
  Pd  Pd29  1  0.25539000  0.25057000  0.95757000  1.0
  Pd  Pd30  1  0.74461000  0.25057000  0.95757000  1.0
  Pd  Pd31  1  0.25135000  0.74674000  0.96037000  1.0
  C  C32  1  0.50000000  0.37122000  0.80569000  1.0
  O  O33  1  0.50000000  0.40154000  0.76269000  1.0
