# generated using pymatgen
data_Li8Ge8Pd16CO
_symmetry_space_group_name_H-M   Pm
_cell_length_a   6.13924000
_cell_length_b   8.68219000
_cell_length_c   26.51160000
_cell_angle_alpha   90.00000000
_cell_angle_beta   90.00000000
_cell_angle_gamma   90.00000000
_symmetry_Int_Tables_number   6
_chemical_formula_structural   Li8Ge8Pd16CO
_chemical_formula_sum   'Li8 Ge8 Pd16 C1 O1'
_cell_volume   1413.12257935
_cell_formula_units_Z   1
loop_
 _symmetry_equiv_pos_site_id
 _symmetry_equiv_pos_as_xyz
  1  'x, y, z'
  2  'x, -y, z'
loop_
 _atom_site_type_symbol
 _atom_site_label
 _atom_site_symmetry_multiplicity
 _atom_site_fract_x
 _atom_site_fract_y
 _atom_site_fract_z
 _atom_site_occupancy
  Li  Li0  2  0.50000000  0.24999000  0.95906000  1.0
  Li  Li1  2  0.50307000  0.24812000  0.13288000  1.0
  Li  Li2  1  -0.00000000  0.00000000  0.87719000  1.0
  Li  Li3  1  0.00000000  0.50000000  0.87719000  1.0
  Li  Li4  1  0.00163000  0.00000000  0.03778000  1.0
  Li  Li5  1  0.00604000  0.50000000  0.03966000  1.0
  Ge  Ge6  2  -0.00000000  0.25001000  0.95906000  1.0
  Ge  Ge7  2  0.99227000  0.24663000  0.12205000  1.0
  Ge  Ge8  1  0.49526000  0.00000000  0.04203000  1.0
  Ge  Ge9  1  0.49913000  0.50000000  0.04135000  1.0
  Ge  Ge10  1  0.50000000  0.00000000  0.87719000  1.0
  Ge  Ge11  1  0.50000000  0.50000000  0.87719000  1.0
  Pd  Pd12  2  0.25000000  0.24999000  0.87719000  1.0
  Pd  Pd13  2  0.25057000  0.25539000  0.04243000  1.0
  Pd  Pd14  2  0.74674000  0.25135000  0.03963000  1.0
  Pd  Pd15  2  0.75000000  0.25001000  0.87719000  1.0
  Pd  Pd16  1  0.22962000  0.00000000  0.11656000  1.0
  Pd  Pd17  1  0.24746000  0.50000000  0.12628000  1.0
  Pd  Pd18  1  0.25000000  0.00000000  0.95906000  1.0
  Pd  Pd19  1  0.25000000  0.50000000  0.95906000  1.0
  Pd  Pd20  1  0.75000000  0.00000000  0.95906000  1.0
  Pd  Pd21  1  0.75000000  0.50000000  0.95906000  1.0
  Pd  Pd22  1  0.75954000  0.00000000  0.11569000  1.0
  Pd  Pd23  1  0.76995000  0.50000000  0.11589000  1.0
  C  C24  1  0.37122000  0.50000000  0.19431000  1.0
  O  O25  1  0.40154000  0.50000000  0.23731000  1.0
