# generated using pymatgen
data_Ga8Fe16Ni8CO
_symmetry_space_group_name_H-M   'P 1'
_cell_length_a   5.81401000
_cell_length_b   8.22225000
_cell_length_c   26.16670000
_cell_angle_alpha   90.00000000
_cell_angle_beta   90.00000000
_cell_angle_gamma   90.00000000
_symmetry_Int_Tables_number   1
_chemical_formula_structural   Ga8Fe16Ni8CO
_chemical_formula_sum   'Ga8 Fe16 Ni8 C1 O1'
_cell_volume   1250.87930421
_cell_formula_units_Z   1
loop_
 _symmetry_equiv_pos_site_id
 _symmetry_equiv_pos_as_xyz
  1  'x, y, z'
loop_
 _atom_site_type_symbol
 _atom_site_label
 _atom_site_symmetry_multiplicity
 _atom_site_fract_x
 _atom_site_fract_y
 _atom_site_fract_z
 _atom_site_occupancy
  Ga  Ga0  1  0.00000000  0.00000000  0.88217000  1.0
  Ga  Ga1  1  0.50000000  0.25000000  0.96072000  1.0
  Ga  Ga2  1  0.50000000  0.75000000  0.96072000  1.0
  Ga  Ga3  1  0.00000000  0.50000000  0.88217000  1.0
  Ga  Ga4  1  0.97835000  0.55194000  0.03965000  1.0
  Ga  Ga5  1  0.51761000  0.76425000  0.12599000  1.0
  Ga  Ga6  1  0.45454000  0.23468000  0.12792000  1.0
  Ga  Ga7  1  0.02656000  0.06728000  0.03744000  1.0
  Fe  Fe8  1  0.25000000  0.00000000  0.96072000  1.0
  Fe  Fe9  1  0.75000000  0.50000000  0.96072000  1.0
  Fe  Fe10  1  0.75000000  0.00000000  0.96072000  1.0
  Fe  Fe11  1  0.25000000  0.50000000  0.96072000  1.0
  Fe  Fe12  1  0.75000000  0.75000000  0.88217000  1.0
  Fe  Fe13  1  0.25000000  0.25000000  0.88217000  1.0
  Fe  Fe14  1  0.25000000  0.75000000  0.88217000  1.0
  Fe  Fe15  1  0.75000000  0.25000000  0.88217000  1.0
  Fe  Fe16  1  0.26140000  0.51693000  0.11304000  1.0
  Fe  Fe17  1  0.76423000  0.02006000  0.11278000  1.0
  Fe  Fe18  1  0.71318000  0.48448000  0.11711000  1.0
  Fe  Fe19  1  0.22097000  0.98562000  0.11874000  1.0
  Fe  Fe20  1  0.73070000  0.29163000  0.04383000  1.0
  Fe  Fe21  1  0.24841000  0.79384000  0.04214000  1.0
  Fe  Fe22  1  0.27514000  0.32918000  0.03917000  1.0
  Fe  Fe23  1  0.75397000  0.82743000  0.03928000  1.0
  Ni  Ni24  1  0.00000000  0.75000000  0.96072000  1.0
  Ni  Ni25  1  0.50000000  0.00000000  0.88217000  1.0
  Ni  Ni26  1  0.00000000  0.25000000  0.96072000  1.0
  Ni  Ni27  1  0.50000000  0.50000000  0.88217000  1.0
  Ni  Ni28  1  0.02053000  0.27039000  0.11198000  1.0
  Ni  Ni29  1  0.53232000  0.57324000  0.03809000  1.0
  Ni  Ni30  1  0.96222000  0.73825000  0.11549000  1.0
  Ni  Ni31  1  0.46726000  0.05594000  0.04028000  1.0
  C  C32  1  0.10171000  0.96395000  0.18096000  1.0
  O  O33  1  0.03539000  0.95341000  0.22302000  1.0
