# generated using pymatgen
data_Zn8Ag4Au4CO
_symmetry_space_group_name_H-M   'P 1'
_cell_length_a   6.35005000
_cell_length_b   6.35005000
_cell_length_c   24.76250000
_cell_angle_alpha   90.00000000
_cell_angle_beta   90.00000000
_cell_angle_gamma   90.00000000
_symmetry_Int_Tables_number   1
_chemical_formula_structural   Zn8Ag4Au4CO
_chemical_formula_sum   'Zn8 Ag4 Au4 C1 O1'
_cell_volume   998.50163050
_cell_formula_units_Z   1
loop_
 _symmetry_equiv_pos_site_id
 _symmetry_equiv_pos_as_xyz
  1  'x, y, z'
loop_
 _atom_site_type_symbol
 _atom_site_label
 _atom_site_symmetry_multiplicity
 _atom_site_fract_x
 _atom_site_fract_y
 _atom_site_fract_z
 _atom_site_occupancy
  Zn  Zn0  1  0.25000000  0.25000000  0.03205000  1.0
  Zn  Zn1  1  0.75000000  0.75000000  0.90384000  1.0
  Zn  Zn2  1  0.75000000  0.25000000  0.03205000  1.0
  Zn  Zn3  1  0.25000000  0.75000000  0.90384000  1.0
  Zn  Zn4  1  0.75000000  0.75000000  0.03205000  1.0
  Zn  Zn5  1  0.25000000  0.25000000  0.90384000  1.0
  Zn  Zn6  1  0.25000000  0.75000000  0.03205000  1.0
  Zn  Zn7  1  0.75000000  0.25000000  0.90384000  1.0
  Ag  Ag8  1  0.00000000  0.00000000  0.09616000  1.0
  Ag  Ag9  1  0.50000000  0.50000000  0.09616000  1.0
  Ag  Ag10  1  0.50000000  0.00000000  0.96795000  1.0
  Ag  Ag11  1  0.00000000  0.50000000  0.96795000  1.0
  Au  Au12  1  0.00000000  0.00000000  0.96795000  1.0
  Au  Au13  1  0.50000000  0.00000000  0.09616000  1.0
  Au  Au14  1  0.00000000  0.50000000  0.09616000  1.0
  Au  Au15  1  0.50000000  0.50000000  0.96795000  1.0
  C  C16  1  0.00000000  0.00000000  0.17289000  1.0
  O  O17  1  0.00000000  0.00000000  0.21933000  1.0
