data_image0
_chemical_formula_structural       Li8Sc8In8Ag8CO
_chemical_formula_sum              "Li8 Sc8 In8 Ag8 C1 O1"
_cell_length_a       6.68683
_cell_length_b       9.4566
_cell_length_c       27.0924
_cell_angle_alpha    90
_cell_angle_beta     90
_cell_angle_gamma    90

_space_group_name_H-M_alt    "P 1"
_space_group_IT_number       1

loop_
  _space_group_symop_operation_xyz
  'x, y, z'

loop_
  _atom_site_type_symbol
  _atom_site_label
  _atom_site_symmetry_multiplicity
  _atom_site_fract_x
  _atom_site_fract_y
  _atom_site_fract_z
  _atom_site_occupancy
  Li  Li1       1.0  0.00000  0.25000  0.95637  1.0000
  Li  Li2       1.0  0.00000  0.75000  0.95637  1.0000
  Li  Li3       1.0  0.50000  0.50000  0.86911  1.0000
  Li  Li4       1.0  0.50000  0.00000  0.86911  1.0000
  Li  Li5       1.0  0.06709  0.76722  0.17857  1.0000
  Li  Li6       1.0  0.06692  0.23281  0.17852  1.0000
  Li  Li7       1.0  0.50544  0.00001  0.04406  1.0000
  Li  Li8       1.0  0.49997  0.50001  0.04770  1.0000
  Sc  Sc1       1.0  0.75000  0.00000  0.95637  1.0000
  Sc  Sc2       1.0  0.75000  0.50000  0.95637  1.0000
  Sc  Sc3       1.0  0.25000  0.25000  0.86911  1.0000
  Sc  Sc4       1.0  0.25000  0.75000  0.86911  1.0000
  Sc  Sc5       1.0  0.78521  0.50002  0.13077  1.0000
  Sc  Sc6       1.0  0.78030  0.00006  0.13075  1.0000
  Sc  Sc7       1.0  0.24029  0.74882  0.05272  1.0000
  Sc  Sc8       1.0  0.24034  0.25119  0.05273  1.0000
  In  In1       1.0  0.25000  0.00000  0.95637  1.0000
  In  In2       1.0  0.25000  0.50000  0.95637  1.0000
  In  In3       1.0  0.75000  0.25000  0.86911  1.0000
  In  In4       1.0  0.75000  0.75000  0.86911  1.0000
  In  In5       1.0  0.24140  0.50003  0.13754  1.0000
  In  In6       1.0  0.26576  0.00003  0.12868  1.0000
  In  In7       1.0  0.75063  0.75021  0.04576  1.0000
  In  In8       1.0  0.75060  0.24980  0.04576  1.0000
  Ag  Ag1       1.0  0.00000  0.00000  0.86911  1.0000
  Ag  Ag2       1.0  0.00000  0.50000  0.86911  1.0000
  Ag  Ag3       1.0  0.50000  0.75000  0.95637  1.0000
  Ag  Ag4       1.0  0.50000  0.25000  0.95637  1.0000
  Ag  Ag5       1.0  0.00154  0.50002  0.04195  1.0000
  Ag  Ag6       1.0  0.00157  0.00001  0.04094  1.0000
  Ag  Ag7       1.0  0.51353  0.25581  0.13632  1.0000
  Ag  Ag8       1.0  0.51352  0.74425  0.13631  1.0000
  C   C1        1.0  0.93084  0.99976  0.20246  1.0000
  O   O1        1.0  0.99444  0.99942  0.24358  1.0000
