# generated using pymatgen
data_Li8Sc8In8Ag8CO
_symmetry_space_group_name_H-M   P1
_cell_length_a   6.68683000
_cell_length_b   9.45660000
_cell_length_c   27.09240000
_cell_angle_alpha   90.00000000
_cell_angle_beta   90.00000000
_cell_angle_gamma   90.00000000
_symmetry_Int_Tables_number   1
_chemical_formula_structural   Li8Sc8In8Ag8CO
_chemical_formula_sum   'Li8 Sc8 In8 Ag8 C1 O1'
_cell_volume   1713.17915172
_cell_formula_units_Z   1
loop_
 _symmetry_equiv_pos_site_id
 _symmetry_equiv_pos_as_xyz
  1  'x, y, z'
loop_
 _atom_site_type_symbol
 _atom_site_label
 _atom_site_symmetry_multiplicity
 _atom_site_fract_x
 _atom_site_fract_y
 _atom_site_fract_z
 _atom_site_occupancy
  Li  Li0  1  0.00000000  0.25000000  0.95637000  1.0
  Li  Li1  1  0.00000000  0.75000000  0.95637000  1.0
  Li  Li2  1  0.06692000  0.23281000  0.17852000  1.0
  Li  Li3  1  0.06709000  0.76722000  0.17857000  1.0
  Li  Li4  1  0.49997000  0.50001000  0.04770000  1.0
  Li  Li5  1  0.50000000  0.00000000  0.86911000  1.0
  Li  Li6  1  0.50000000  0.50000000  0.86911000  1.0
  Li  Li7  1  0.50544000  0.00001000  0.04406000  1.0
  Sc  Sc8  1  0.24029000  0.74882000  0.05272000  1.0
  Sc  Sc9  1  0.24034000  0.25119000  0.05273000  1.0
  Sc  Sc10  1  0.25000000  0.25000000  0.86911000  1.0
  Sc  Sc11  1  0.25000000  0.75000000  0.86911000  1.0
  Sc  Sc12  1  0.75000000  0.00000000  0.95637000  1.0
  Sc  Sc13  1  0.75000000  0.50000000  0.95637000  1.0
  Sc  Sc14  1  0.78030000  0.00006000  0.13075000  1.0
  Sc  Sc15  1  0.78521000  0.50002000  0.13077000  1.0
  In  In16  1  0.24140000  0.50003000  0.13754000  1.0
  In  In17  1  0.25000000  0.00000000  0.95637000  1.0
  In  In18  1  0.25000000  0.50000000  0.95637000  1.0
  In  In19  1  0.26576000  0.00003000  0.12868000  1.0
  In  In20  1  0.75000000  0.25000000  0.86911000  1.0
  In  In21  1  0.75000000  0.75000000  0.86911000  1.0
  In  In22  1  0.75060000  0.24980000  0.04576000  1.0
  In  In23  1  0.75063000  0.75021000  0.04576000  1.0
  Ag  Ag24  1  0.00000000  0.00000000  0.86911000  1.0
  Ag  Ag25  1  0.00000000  0.50000000  0.86911000  1.0
  Ag  Ag26  1  0.00154000  0.50002000  0.04195000  1.0
  Ag  Ag27  1  0.00157000  0.00001000  0.04094000  1.0
  Ag  Ag28  1  0.50000000  0.25000000  0.95637000  1.0
  Ag  Ag29  1  0.50000000  0.75000000  0.95637000  1.0
  Ag  Ag30  1  0.51352000  0.74425000  0.13631000  1.0
  Ag  Ag31  1  0.51353000  0.25581000  0.13632000  1.0
  C  C32  1  0.93084000  0.99976000  0.20246000  1.0
  O  O33  1  0.99444000  0.99942000  0.24358000  1.0
