# generated using pymatgen
data_Li4Sc4In4Ge4C
_symmetry_space_group_name_H-M   'P 1'
_cell_length_a   8.22048000
_cell_length_b   6.05318000
_cell_length_c   24.51760000
_cell_angle_alpha   90.00000000
_cell_angle_beta   90.00000000
_cell_angle_gamma   90.00000000
_symmetry_Int_Tables_number   1
_chemical_formula_structural   Li4Sc4In4Ge4C
_chemical_formula_sum   'Li4 Sc4 In4 Ge4 C1'
_cell_volume   1219.99688239
_cell_formula_units_Z   1
loop_
 _symmetry_equiv_pos_site_id
 _symmetry_equiv_pos_as_xyz
  1  'x, y, z'
loop_
 _atom_site_type_symbol
 _atom_site_label
 _atom_site_symmetry_multiplicity
 _atom_site_fract_x
 _atom_site_fract_y
 _atom_site_fract_z
 _atom_site_occupancy
  Li  Li0  1  0.00000000  0.50000000  0.09213000  1.0
  Li  Li1  1  0.00000000  0.93254000  0.97173000  1.0
  Li  Li2  1  0.50000000  0.50000000  0.09213000  1.0
  Li  Li3  1  0.50000000  0.94828000  0.95851000  1.0
  Sc  Sc4  1  0.25000000  0.22528000  0.03071000  1.0
  Sc  Sc5  1  0.20064000  0.61859000  0.90434000  1.0
  Sc  Sc6  1  0.75000000  0.22528000  0.03071000  1.0
  Sc  Sc7  1  0.79936000  0.61859000  0.90434000  1.0
  In  In8  1  0.25000000  0.72528000  0.03071000  1.0
  In  In9  1  0.19368000  0.12471000  0.87860000  1.0
  In  In10  1  0.75000000  0.72528000  0.03071000  1.0
  In  In11  1  0.80632000  0.12471000  0.87860000  1.0
  Ge  Ge12  1  0.00000000  0.00000000  0.09213000  1.0
  Ge  Ge13  1  0.00000000  0.39042000  0.97176000  1.0
  Ge  Ge14  1  0.50000000  1.00000000  0.09213000  1.0
  Ge  Ge15  1  0.50000000  0.44064000  0.96432000  1.0
  C  C16  1  0.00000000  0.82714000  0.88841000  1.0
