# generated using pymatgen
data_Li4Mg4Sn4Pd4C
_symmetry_space_group_name_H-M   'P 1'
_cell_length_a   6.52546000
_cell_length_b   6.52546000
_cell_length_c   24.89410000
_cell_angle_alpha   90.00000000
_cell_angle_beta   90.00000000
_cell_angle_gamma   90.00000000
_symmetry_Int_Tables_number   1
_chemical_formula_structural   Li4Mg4Sn4Pd4C
_chemical_formula_sum   'Li4 Mg4 Sn4 Pd4 C1'
_cell_volume   1060.03131086
_cell_formula_units_Z   1
loop_
 _symmetry_equiv_pos_site_id
 _symmetry_equiv_pos_as_xyz
  1  'x, y, z'
loop_
 _atom_site_type_symbol
 _atom_site_label
 _atom_site_symmetry_multiplicity
 _atom_site_fract_x
 _atom_site_fract_y
 _atom_site_fract_z
 _atom_site_occupancy
  Li  Li0  1  0.00000000  0.00000000  0.90170000  1
  Li  Li1  1  0.50000000  0.00000000  0.03504000  1
  Li  Li2  1  1.00000000  0.50000000  0.03504000  1
  Li  Li3  1  0.50000000  0.50000000  0.90170000  1
  Mg  Mg4  1  0.75000000  0.25000000  0.96723000  1
  Mg  Mg5  1  0.23899000  0.23899000  0.10617000  1
  Mg  Mg6  1  0.76101000  0.76101000  0.10617000  1
  Mg  Mg7  1  0.25000000  0.75000000  0.96723000  1
  Sn  Sn8  1  0.75000000  0.75000000  0.96723000  1
  Sn  Sn9  1  0.24982000  0.75018000  0.11019000  1
  Sn  Sn10  1  0.75018000  0.24982000  0.11019000  1
  Sn  Sn11  1  0.25000000  0.25000000  0.96723000  1
  Pd  Pd12  1  0.50000000  0.00000000  0.90170000  1
  Pd  Pd13  1  0.00000000  0.00000000  0.03061000  1
  Pd  Pd14  1  0.50000000  0.50000000  0.03460000  1
  Pd  Pd15  1  1.00000000  0.50000000  0.90170000  1
  C  C16  1  0.00000000  0.00000000  0.12186000  1
