# generated using pymatgen
data_Li8Sc8Ga8Pd8CO
_symmetry_space_group_name_H-M   'P 1'
_cell_length_a   6.35289000
_cell_length_b   8.98434000
_cell_length_c   26.73830000
_cell_angle_alpha   90.00000000
_cell_angle_beta   90.00000000
_cell_angle_gamma   90.00000000
_symmetry_Int_Tables_number   1
_chemical_formula_structural   Li8Sc8Ga8Pd8CO
_chemical_formula_sum   'Li8 Sc8 Ga8 Pd8 C1 O1'
_cell_volume   1526.12921479
_cell_formula_units_Z   1
loop_
 _symmetry_equiv_pos_site_id
 _symmetry_equiv_pos_as_xyz
  1  'x, y, z'
loop_
 _atom_site_type_symbol
 _atom_site_label
 _atom_site_symmetry_multiplicity
 _atom_site_fract_x
 _atom_site_fract_y
 _atom_site_fract_z
 _atom_site_occupancy
  Li  Li0  1  0.75000000  0.00000000  0.95800000  1.0
  Li  Li1  1  0.75000000  0.50000000  0.95800000  1.0
  Li  Li2  1  0.25000000  0.25000000  0.87400000  1.0
  Li  Li3  1  0.25000000  0.75000000  0.87400000  1.0
  Li  Li4  1  0.57813000  0.48185000  0.18568000  1.0
  Li  Li5  1  0.57784000  0.01837000  0.18579000  1.0
  Li  Li6  1  0.24815000  0.74999000  0.04427000  1.0
  Li  Li7  1  0.23285000  0.25000000  0.04341000  1.0
  Sc  Sc8  1  0.00000000  0.25000000  0.95800000  1.0
  Sc  Sc9  1  0.00000000  0.75000000  0.95800000  1.0
  Sc  Sc10  1  0.50000000  0.50000000  0.87400000  1.0
  Sc  Sc11  1  0.50000000  0.00000000  0.87400000  1.0
  Sc  Sc12  1  0.94863000  0.74998000  0.12398000  1.0
  Sc  Sc13  1  0.93809000  0.25002000  0.12733000  1.0
  Sc  Sc14  1  0.51972000  0.99933000  0.05140000  1.0
  Sc  Sc15  1  0.51969000  0.50064000  0.05139000  1.0
  Ga  Ga16  1  0.00000000  0.00000000  0.87400000  1.0
  Ga  Ga17  1  0.00000000  0.50000000  0.87400000  1.0
  Ga  Ga18  1  0.50000000  0.75000000  0.95800000  1.0
  Ga  Ga19  1  0.50000000  0.25000000  0.95800000  1.0
  Ga  Ga20  1  0.99609000  0.50005000  0.04162000  1.0
  Ga  Ga21  1  0.99605000  0.99994000  0.04162000  1.0
  Ga  Ga22  1  0.47264000  0.25001000  0.12235000  1.0
  Ga  Ga23  1  0.47230000  0.75004000  0.13183000  1.0
  Pd  Pd24  1  0.25000000  0.00000000  0.95800000  1.0
  Pd  Pd25  1  0.25000000  0.50000000  0.95800000  1.0
  Pd  Pd26  1  0.75000000  0.25000000  0.87400000  1.0
  Pd  Pd27  1  0.75000000  0.75000000  0.87400000  1.0
  Pd  Pd28  1  0.23194000  0.50253000  0.12171000  1.0
  Pd  Pd29  1  0.23193000  0.99748000  0.12171000  1.0
  Pd  Pd30  1  0.74738000  0.75003000  0.03833000  1.0
  Pd  Pd31  1  0.74675000  0.24999000  0.03683000  1.0
  C  C32  1  0.72164000  0.25001000  0.18991000  1.0
  O  O33  1  0.63191000  0.24964000  0.23070000  1.0
