# generated using pymatgen
data_Ti8In8Au16CO
_symmetry_space_group_name_H-M   P1
_cell_length_a   6.72102000
_cell_length_b   9.50495000
_cell_length_c   27.12870000
_cell_angle_alpha   90.00000000
_cell_angle_beta   90.00000000
_cell_angle_gamma   90.00000000
_symmetry_Int_Tables_number   1
_chemical_formula_structural   Ti8In8Au16CO
_chemical_formula_sum   'Ti8 In8 Au16 C1 O1'
_cell_volume   1733.06163115
_cell_formula_units_Z   1
loop_
 _symmetry_equiv_pos_site_id
 _symmetry_equiv_pos_as_xyz
  1  'x, y, z'
loop_
 _atom_site_type_symbol
 _atom_site_label
 _atom_site_symmetry_multiplicity
 _atom_site_fract_x
 _atom_site_fract_y
 _atom_site_fract_z
 _atom_site_occupancy
  Ti  Ti0  1  0.00000000  0.00000000  0.86861000  1.0
  Ti  Ti1  1  0.00000000  0.00483000  0.04399000  1.0
  Ti  Ti2  1  0.00000000  0.49518000  0.04399000  1.0
  Ti  Ti3  1  0.00000000  0.50000000  0.86861000  1.0
  Ti  Ti4  1  0.50000000  0.25000000  0.12335000  1.0
  Ti  Ti5  1  0.50000000  0.25000000  0.95620000  1.0
  Ti  Ti6  1  0.50000000  0.75000000  0.95620000  1.0
  Ti  Ti7  1  0.50000000  0.75001000  0.12493000  1.0
  In  In8  1  0.00000000  0.25000000  0.95620000  1.0
  In  In9  1  0.00000000  0.74999000  0.15173000  1.0
  In  In10  1  0.00000000  0.75000000  0.95620000  1.0
  In  In11  1  0.00001000  0.25000000  0.14281000  1.0
  In  In12  1  0.50000000  0.00000000  0.86861000  1.0
  In  In13  1  0.50000000  0.50000000  0.86861000  1.0
  In  In14  1  0.50000000  0.50579000  0.04148000  1.0
  In  In15  1  0.50000000  0.99423000  0.04149000  1.0
  Au  Au16  1  0.22336000  0.74997000  0.04938000  1.0
  Au  Au17  1  0.24413000  0.25004000  0.04453000  1.0
  Au  Au18  1  0.25000000  0.00000000  0.95620000  1.0
  Au  Au19  1  0.25000000  0.25000000  0.86861000  1.0
  Au  Au20  1  0.25000000  0.50000000  0.95620000  1.0
  Au  Au21  1  0.25000000  0.75000000  0.86861000  1.0
  Au  Au22  1  0.27293000  0.00071000  0.13264000  1.0
  Au  Au23  1  0.27294000  0.49929000  0.13263000  1.0
  Au  Au24  1  0.72707000  0.49928000  0.13263000  1.0
  Au  Au25  1  0.72708000  0.00071000  0.13263000  1.0
  Au  Au26  1  0.75000000  0.00000000  0.95620000  1.0
  Au  Au27  1  0.75000000  0.25000000  0.86861000  1.0
  Au  Au28  1  0.75000000  0.50000000  0.95620000  1.0
  Au  Au29  1  0.75000000  0.75000000  0.86861000  1.0
  Au  Au30  1  0.75588000  0.25004000  0.04453000  1.0
  Au  Au31  1  0.77665000  0.74997000  0.04938000  1.0
  C  C32  1  0.99984000  0.24989000  0.27971000  1.0
  O  O33  1  0.00000000  0.25001000  0.32154000  1.0
