# generated using pymatgen
data_YSnGePd
_symmetry_space_group_name_H-M   'P 1'
_cell_length_a   5.93056000
_cell_length_b   9.60308000
_cell_length_c   24.43880000
_cell_angle_alpha   90.00000000
_cell_angle_beta   90.00000000
_cell_angle_gamma   90.00000000
_symmetry_Int_Tables_number   1
_chemical_formula_structural   YSnGePd
_chemical_formula_sum   'Y4 Sn4 Ge4 Pd4'
_cell_volume   1391.82979156
_cell_formula_units_Z   4
loop_
 _symmetry_equiv_pos_site_id
 _symmetry_equiv_pos_as_xyz
  1  'x, y, z'
loop_
 _atom_site_type_symbol
 _atom_site_label
 _atom_site_symmetry_multiplicity
 _atom_site_fract_x
 _atom_site_fract_y
 _atom_site_fract_z
 _atom_site_occupancy
  Y  Y0  1  0.48285000  0.99996000  0.08742000  1.0
  Y  Y1  1  0.03196000  0.00000000  0.96973000  1.0
  Y  Y2  1  0.48299000  0.50006000  0.08738000  1.0
  Y  Y3  1  0.03196000  0.50000000  0.96973000  1.0
  Sn  Sn4  1  0.80604000  0.75018000  0.03918000  1.0
  Sn  Sn5  1  0.29795000  0.75000000  0.90919000  1.0
  Sn  Sn6  1  0.80620000  0.24982000  0.03918000  1.0
  Sn  Sn7  1  0.29795000  0.25000000  0.90919000  1.0
  Ge  Ge8  1  0.98271000  0.99970000  0.09846000  1.0
  Ge  Ge9  1  0.53196000  0.00000000  0.96973000  1.0
  Ge  Ge10  1  0.98254000  0.50029000  0.09839000  1.0
  Ge  Ge11  1  0.53196000  0.50000000  0.96973000  1.0
  Pd  Pd12  1  0.29712000  0.75001000  0.03156000  1.0
  Pd  Pd13  1  0.79795000  0.75000000  0.90919000  1.0
  Pd  Pd14  1  0.29731000  0.24999000  0.03153000  1.0
  Pd  Pd15  1  0.79795000  0.25000000  0.90919000  1.0
