# generated using pymatgen
data_YSnGePd
_symmetry_space_group_name_H-M   P1
_cell_length_a   5.93056000
_cell_length_b   9.60308000
_cell_length_c   24.43880000
_cell_angle_alpha   90.00000000
_cell_angle_beta   90.00000000
_cell_angle_gamma   90.00000000
_symmetry_Int_Tables_number   1
_chemical_formula_structural   YSnGePd
_chemical_formula_sum   'Y4 Sn4 Ge4 Pd4'
_cell_volume   1391.82979156
_cell_formula_units_Z   4
loop_
 _symmetry_equiv_pos_site_id
 _symmetry_equiv_pos_as_xyz
  1  'x, y, z'
loop_
 _atom_site_type_symbol
 _atom_site_label
 _atom_site_symmetry_multiplicity
 _atom_site_fract_x
 _atom_site_fract_y
 _atom_site_fract_z
 _atom_site_occupancy
  Y  Y0  1  0.51701000  0.49994000  0.08738000  1.0
  Y  Y1  1  0.51715000  0.00004000  0.08742000  1.0
  Y  Y2  1  0.96804000  0.00000000  0.96973000  1.0
  Y  Y3  1  0.96804000  0.50000000  0.96973000  1.0
  Sn  Sn4  1  0.19380000  0.75018000  0.03918000  1.0
  Sn  Sn5  1  0.19396000  0.24982000  0.03918000  1.0
  Sn  Sn6  1  0.70205000  0.25000000  0.90919000  1.0
  Sn  Sn7  1  0.70205000  0.75000000  0.90919000  1.0
  Ge  Ge8  1  0.01729000  0.00030000  0.09846000  1.0
  Ge  Ge9  1  0.01746000  0.49971000  0.09839000  1.0
  Ge  Ge10  1  0.46804000  0.00000000  0.96973000  1.0
  Ge  Ge11  1  0.46804000  0.50000000  0.96973000  1.0
  Pd  Pd12  1  0.20205000  0.25000000  0.90919000  1.0
  Pd  Pd13  1  0.20205000  0.75000000  0.90919000  1.0
  Pd  Pd14  1  0.70269000  0.75001000  0.03153000  1.0
  Pd  Pd15  1  0.70288000  0.24999000  0.03156000  1.0
