# generated using pymatgen
data_Li8Ga8Ni8Pd8C
_symmetry_space_group_name_H-M   Pm
_cell_length_a   5.93220000
_cell_length_b   8.38940000
_cell_length_c   26.29200000
_cell_angle_alpha   90.00000000
_cell_angle_beta   90.00000000
_cell_angle_gamma   90.00000000
_symmetry_Int_Tables_number   6
_chemical_formula_structural   Li8Ga8Ni8Pd8C
_chemical_formula_sum   'Li8 Ga8 Ni8 Pd8 C1'
_cell_volume   1308.48970449
_cell_formula_units_Z   1
loop_
 _symmetry_equiv_pos_site_id
 _symmetry_equiv_pos_as_xyz
  1  'x, y, z'
  2  'x, -y, z'
loop_
 _atom_site_type_symbol
 _atom_site_label
 _atom_site_symmetry_multiplicity
 _atom_site_fract_x
 _atom_site_fract_y
 _atom_site_fract_z
 _atom_site_occupancy
  Li  Li0  2  0.00000000  0.25000000  0.96011000  1.0
  Li  Li1  2  0.01088000  0.25550000  0.14034000  1.0
  Li  Li2  1  0.50000000  0.00000000  0.88034000  1.0
  Li  Li3  1  0.50000000  0.50000000  0.88034000  1.0
  Li  Li4  1  0.50185000  0.50000000  0.03684000  1.0
  Li  Li5  1  0.50549000  0.00000000  0.03588000  1.0
  Ga  Ga6  2  0.49068000  0.25909000  0.12226000  1.0
  Ga  Ga7  2  0.50000000  0.25000000  0.96011000  1.0
  Ga  Ga8  1  0.00000000  0.00000000  0.88034000  1.0
  Ga  Ga9  1  0.00000000  0.50000000  0.88034000  1.0
  Ga  Ga10  1  0.00093000  0.50000000  0.03920000  1.0
  Ga  Ga11  1  0.99193000  0.00000000  0.04007000  1.0
  Ni  Ni12  2  0.75000000  0.25000000  0.88034000  1.0
  Ni  Ni13  2  0.75166000  0.24762000  0.04180000  1.0
  Ni  Ni14  1  0.25000000  0.00000000  0.96011000  1.0
  Ni  Ni15  1  0.25000000  0.50000000  0.96011000  1.0
  Ni  Ni16  1  0.26499000  0.50000000  0.11113000  1.0
  Ni  Ni17  1  0.27621000  0.00000000  0.11439000  1.0
  Pd  Pd18  2  0.24500000  0.24556000  0.04045000  1.0
  Pd  Pd19  2  0.25000000  0.25000000  0.88034000  1.0
  Pd  Pd20  1  0.72123000  0.00000000  0.12144000  1.0
  Pd  Pd21  1  0.74560000  0.50000000  0.11540000  1.0
  Pd  Pd22  1  0.75000000  0.00000000  0.96011000  1.0
  Pd  Pd23  1  0.75000000  0.50000000  0.96011000  1.0
  C  C24  1  0.02522000  0.00000000  0.14595000  1.0
