# generated using pymatgen
data_Y16Al16CO
_symmetry_space_group_name_H-M   Pmm2
_cell_length_a   7.18582000
_cell_length_b   10.16230000
_cell_length_c   27.62170000
_cell_angle_alpha   90.00000000
_cell_angle_beta   90.00000000
_cell_angle_gamma   90.00000000
_symmetry_Int_Tables_number   25
_chemical_formula_structural   Y16Al16CO
_chemical_formula_sum   'Y16 Al16 C1 O1'
_cell_volume   2017.05968772
_cell_formula_units_Z   1
loop_
 _symmetry_equiv_pos_site_id
 _symmetry_equiv_pos_as_xyz
  1  'x, y, z'
  2  '-x, -y, z'
  3  '-x, y, z'
  4  'x, -y, z'
loop_
 _atom_site_type_symbol
 _atom_site_label
 _atom_site_symmetry_multiplicity
 _atom_site_fract_x
 _atom_site_fract_y
 _atom_site_fract_z
 _atom_site_occupancy
  Y  Y0  2  0.00000000  0.24916000  0.04409000  1.0
  Y  Y1  2  0.00000000  0.25000000  0.86203000  1.0
  Y  Y2  2  0.50000000  0.25000000  0.86203000  1.0
  Y  Y3  2  0.50000000  0.25186000  0.04384000  1.0
  Y  Y4  1  0.00000000  0.00000000  0.13964000  1.0
  Y  Y5  1  0.00000000  0.00000000  0.95401000  1.0
  Y  Y6  1  0.00000000  0.50000000  0.14371000  1.0
  Y  Y7  1  0.00000000  0.50000000  0.95401000  1.0
  Y  Y8  1  0.50000000  0.00000000  0.14567000  1.0
  Y  Y9  1  0.50000000  0.00000000  0.95401000  1.0
  Y  Y10  1  0.50000000  0.50000000  0.14530000  1.0
  Y  Y11  1  0.50000000  0.50000000  0.95401000  1.0
  Al  Al12  4  0.25000000  0.25000000  0.95401000  1.0
  Al  Al13  4  0.25319000  0.25221000  0.13616000  1.0
  Al  Al14  2  0.24950000  0.50000000  0.05139000  1.0
  Al  Al15  2  0.25000000  0.00000000  0.86203000  1.0
  Al  Al16  2  0.25000000  0.50000000  0.86203000  1.0
  Al  Al17  2  0.25725000  0.00000000  0.04974000  1.0
  C  C18  1  0.00000000  0.00000000  0.22925000  1.0
  O  O19  1  0.00000000  0.00000000  0.27087000  1.0
