# generated using pymatgen
data_Li4Y4Sn4Ge4C
_symmetry_space_group_name_H-M   'P 1'
_cell_length_a   8.52742000
_cell_length_b   6.38551000
_cell_length_c   24.76910000
_cell_angle_alpha   90.00000000
_cell_angle_beta   90.00000000
_cell_angle_gamma   90.00000000
_symmetry_Int_Tables_number   1
_chemical_formula_structural   Li4Y4Sn4Ge4C
_chemical_formula_sum   'Li4 Y4 Sn4 Ge4 C1'
_cell_volume   1348.72519246
_cell_formula_units_Z   1
loop_
 _symmetry_equiv_pos_site_id
 _symmetry_equiv_pos_as_xyz
  1  'x, y, z'
loop_
 _atom_site_type_symbol
 _atom_site_label
 _atom_site_symmetry_multiplicity
 _atom_site_fract_x
 _atom_site_fract_y
 _atom_site_fract_z
 _atom_site_occupancy
  Li  Li0  1  0.24999000  0.72717000  0.03209000  1.0
  Li  Li1  1  0.16110000  0.20572000  0.90061000  1.0
  Li  Li2  1  0.75001000  0.72717000  0.03209000  1.0
  Li  Li3  1  0.83890000  0.20572000  0.90061000  1.0
  Y  Y4  1  0.24999000  0.22717000  0.03209000  1.0
  Y  Y5  1  0.22446000  0.67253000  0.90987000  1.0
  Y  Y6  1  0.75001000  0.22717000  0.03209000  1.0
  Y  Y7  1  0.77554000  0.67253000  0.90987000  1.0
  Sn  Sn8  1  0.00000000  0.50000000  0.09627000  1.0
  Sn  Sn9  1  0.00000000  0.93780000  0.98000000  1.0
  Sn  Sn10  1  0.50000000  0.50000000  0.09627000  1.0
  Sn  Sn11  1  0.50000000  0.04487000  0.94023000  1.0
  Ge  Ge12  1  0.00000000  0.00000000  0.09627000  1.0
  Ge  Ge13  1  0.00000000  0.44632000  0.97558000  1.0
  Ge  Ge14  1  0.50000000  1.00000000  0.09627000  1.0
  Ge  Ge15  1  0.50000000  0.50040000  0.97521000  1.0
  C  C16  1  0.00000000  0.48246000  0.89172000  1.0
