# generated using pymatgen
data_Cu16Pd16CO
_symmetry_space_group_name_H-M   Pmm2
_cell_length_a   6.09666000
_cell_length_b   8.62198000
_cell_length_c   26.46650000
_cell_angle_alpha   90.00000000
_cell_angle_beta   90.00000000
_cell_angle_gamma   90.00000000
_symmetry_Int_Tables_number   25
_chemical_formula_structural   Cu16Pd16CO
_chemical_formula_sum   'Cu16 Pd16 C1 O1'
_cell_volume   1391.21899865
_cell_formula_units_Z   1
loop_
 _symmetry_equiv_pos_site_id
 _symmetry_equiv_pos_as_xyz
  1  'x, y, z'
  2  '-x, -y, z'
  3  '-x, y, z'
  4  'x, -y, z'
loop_
 _atom_site_type_symbol
 _atom_site_label
 _atom_site_symmetry_multiplicity
 _atom_site_fract_x
 _atom_site_fract_y
 _atom_site_fract_z
 _atom_site_occupancy
  Cu  Cu0  2  0.00000000  0.25000000  0.87784000  1.0
  Cu  Cu1  2  0.00000000  0.25246000  0.04094000  1.0
  Cu  Cu2  2  0.50000000  0.24717000  0.04036000  1.0
  Cu  Cu3  2  0.50000000  0.25000000  0.87784000  1.0
  Cu  Cu4  1  0.00000000  0.00000000  0.12321000  1.0
  Cu  Cu5  1  0.00000000  0.00000000  0.95928000  1.0
  Cu  Cu6  1  0.00000000  0.50000000  0.12139000  1.0
  Cu  Cu7  1  0.00000000  0.50000000  0.95928000  1.0
  Cu  Cu8  1  0.50000000  0.00000000  0.11944000  1.0
  Cu  Cu9  1  0.50000000  0.00000000  0.95928000  1.0
  Cu  Cu10  1  0.50000000  0.50000000  0.12161000  1.0
  Cu  Cu11  1  0.50000000  0.50000000  0.95928000  1.0
  Pd  Pd12  4  0.25000000  0.25000000  0.95928000  1.0
  Pd  Pd13  4  0.25363000  0.25219000  0.12098000  1.0
  Pd  Pd14  2  0.24338000  0.00000000  0.04072000  1.0
  Pd  Pd15  2  0.25000000  0.00000000  0.87784000  1.0
  Pd  Pd16  2  0.25000000  0.50000000  0.87784000  1.0
  Pd  Pd17  2  0.25166000  0.50000000  0.04049000  1.0
  C  C18  1  0.00000000  0.00000000  0.19300000  1.0
  O  O19  1  0.00000000  0.00000000  0.23632000  1.0
