data_image0
_chemical_formula_structural       Li16Ga8Pt8CO
_chemical_formula_sum              "Li16 Ga8 Pt8 C1 O1"
_cell_length_a       6.10853
_cell_length_b       8.63876
_cell_length_c       26.4791
_cell_angle_alpha    90
_cell_angle_beta     90
_cell_angle_gamma    90

_space_group_name_H-M_alt    "P 1"
_space_group_IT_number       1

loop_
  _space_group_symop_operation_xyz
  'x, y, z'

loop_
  _atom_site_type_symbol
  _atom_site_label
  _atom_site_symmetry_multiplicity
  _atom_site_fract_x
  _atom_site_fract_y
  _atom_site_fract_z
  _atom_site_occupancy
  Li  Li1       1.0  0.00000  0.75000  0.95922  1.0000
  Li  Li2       1.0  0.50000  0.00000  0.87766  1.0000
  Li  Li3       1.0  0.00000  0.25000  0.95922  1.0000
  Li  Li4       1.0  0.50000  0.50000  0.87766  1.0000
  Li  Li5       1.0  0.25000  0.25000  0.87766  1.0000
  Li  Li6       1.0  0.25000  0.75000  0.87766  1.0000
  Li  Li7       1.0  0.75000  0.50000  0.95922  1.0000
  Li  Li8       1.0  0.75000  0.00000  0.95922  1.0000
  Li  Li9       1.0  0.01460  0.25000  0.12044  1.0000
  Li  Li10      1.0  0.50942  0.49982  0.03961  1.0000
  Li  Li11      1.0  0.00575  0.75000  0.12190  1.0000
  Li  Li12      1.0  0.50943  0.00018  0.03961  1.0000
  Li  Li13      1.0  0.24756  0.75000  0.03766  1.0000
  Li  Li14      1.0  0.24509  0.25000  0.03635  1.0000
  Li  Li15      1.0  0.73267  0.00729  0.13252  1.0000
  Li  Li16      1.0  0.73267  0.49270  0.13253  1.0000
  Ga  Ga1       1.0  0.25000  0.00000  0.95922  1.0000
  Ga  Ga2       1.0  0.25000  0.50000  0.95922  1.0000
  Ga  Ga3       1.0  0.75000  0.75000  0.87766  1.0000
  Ga  Ga4       1.0  0.75000  0.25000  0.87766  1.0000
  Ga  Ga5       1.0  0.26744  0.50214  0.12280  1.0000
  Ga  Ga6       1.0  0.26744  0.99785  0.12280  1.0000
  Ga  Ga7       1.0  0.75566  0.25000  0.03975  1.0000
  Ga  Ga8       1.0  0.75524  0.75000  0.04008  1.0000
  Pt  Pt1       1.0  0.00000  0.00000  0.87766  1.0000
  Pt  Pt2       1.0  0.50000  0.25000  0.95922  1.0000
  Pt  Pt3       1.0  0.50000  0.75000  0.95922  1.0000
  Pt  Pt4       1.0  0.00000  0.50000  0.87766  1.0000
  Pt  Pt5       1.0  0.99784  0.49997  0.04400  1.0000
  Pt  Pt6       1.0  0.49335  0.75000  0.11476  1.0000
  Pt  Pt7       1.0  0.48184  0.25000  0.11242  1.0000
  Pt  Pt8       1.0  0.99784  0.00003  0.04400  1.0000
  C   C1        1.0  0.93629  0.25001  0.19570  1.0000
  O   O1        1.0  0.91393  0.25002  0.23875  1.0000
