# generated using pymatgen
data_Li16Ga8Pt8CO
_symmetry_space_group_name_H-M   'P 1'
_cell_length_a   8.63876000
_cell_length_b   6.10853000
_cell_length_c   26.47910000
_cell_angle_alpha   90.00000000
_cell_angle_beta   90.00000000
_cell_angle_gamma   90.00000000
_symmetry_Int_Tables_number   1
_chemical_formula_structural   Li16Ga8Pt8CO
_chemical_formula_sum   'Li16 Ga8 Pt8 C1 O1'
_cell_volume   1397.30540690
_cell_formula_units_Z   1
loop_
 _symmetry_equiv_pos_site_id
 _symmetry_equiv_pos_as_xyz
  1  'x, y, z'
loop_
 _atom_site_type_symbol
 _atom_site_label
 _atom_site_symmetry_multiplicity
 _atom_site_fract_x
 _atom_site_fract_y
 _atom_site_fract_z
 _atom_site_occupancy
  Li  Li0  1  0.50000000  0.00000000  0.04078000  1.0
  Li  Li1  1  0.74999000  0.50000000  0.12234000  1.0
  Li  Li2  1  0.00000000  0.00000000  0.04078000  1.0
  Li  Li3  1  0.25001000  0.50000000  0.12234000  1.0
  Li  Li4  1  0.00000000  0.25000000  0.12234000  1.0
  Li  Li5  1  0.50000000  0.25000000  0.12234000  1.0
  Li  Li6  1  0.24999000  0.75000000  0.04078000  1.0
  Li  Li7  1  0.75001000  0.75000000  0.04078000  1.0
  Li  Li8  1  0.00000000  0.01460000  0.87956000  1.0
  Li  Li9  1  0.24981000  0.50942000  0.96039000  1.0
  Li  Li10  1  0.50000000  0.00575000  0.87810000  1.0
  Li  Li11  1  0.75019000  0.50942000  0.96039000  1.0
  Li  Li12  1  0.50000000  0.24756000  0.96234000  1.0
  Li  Li13  1  0.00000000  0.24509000  0.96365000  1.0
  Li  Li14  1  0.75728000  0.73267000  0.86748000  1.0
  Li  Li15  1  0.24272000  0.73267000  0.86748000  1.0
  Ga  Ga16  1  0.74999000  0.25000000  0.04078000  1.0
  Ga  Ga17  1  0.25001000  0.25000000  0.04078000  1.0
  Ga  Ga18  1  0.50000000  0.75000000  0.12234000  1.0
  Ga  Ga19  1  0.00000000  0.75000000  0.12234000  1.0
  Ga  Ga20  1  0.25213000  0.26744000  0.87720000  1.0
  Ga  Ga21  1  0.74787000  0.26744000  0.87720000  1.0
  Ga  Ga22  1  0.00000000  0.75566000  0.96025000  1.0
  Ga  Ga23  1  0.50000000  0.75524000  0.95992000  1.0
  Pt  Pt24  1  0.74999000  0.00000000  0.12234000  1.0
  Pt  Pt25  1  0.00000000  0.50000000  0.04078000  1.0
  Pt  Pt26  1  0.50000000  0.50000000  0.04078000  1.0
  Pt  Pt27  1  0.25001000  0.00000000  0.12234000  1.0
  Pt  Pt28  1  0.24996000  0.99784000  0.95600000  1.0
  Pt  Pt29  1  0.50000000  0.49335000  0.88524000  1.0
  Pt  Pt30  1  0.00000000  0.48184000  0.88758000  1.0
  Pt  Pt31  1  0.75004000  0.99784000  0.95600000  1.0
  C  C32  1  0.00000000  0.93629000  0.80430000  1.0
  O  O33  1  0.00000000  0.91393000  0.76125000  1.0
