# generated using pymatgen
data_Li16Ga8Pt8CO
_symmetry_space_group_name_H-M   Pm
_cell_length_a   6.10853000
_cell_length_b   8.63876000
_cell_length_c   26.47910000
_cell_angle_alpha   90.00000000
_cell_angle_beta   90.00000000
_cell_angle_gamma   90.00000000
_symmetry_Int_Tables_number   6
_chemical_formula_structural   Li16Ga8Pt8CO
_chemical_formula_sum   'Li16 Ga8 Pt8 C1 O1'
_cell_volume   1397.30540690
_cell_formula_units_Z   1
loop_
 _symmetry_equiv_pos_site_id
 _symmetry_equiv_pos_as_xyz
  1  'x, y, z'
  2  'x, -y, z'
loop_
 _atom_site_type_symbol
 _atom_site_label
 _atom_site_symmetry_multiplicity
 _atom_site_fract_x
 _atom_site_fract_y
 _atom_site_fract_z
 _atom_site_occupancy
  Li  Li0  2  0.50000000  0.25001000  0.87766000  1.0
  Li  Li1  2  0.50942000  0.24981000  0.03961000  1.0
  Li  Li2  2  0.73267000  0.24272000  0.13252000  1.0
  Li  Li3  2  0.75000000  0.24999000  0.95922000  1.0
  Li  Li4  1  0.00000000  0.00000000  0.95922000  1.0
  Li  Li5  1  0.00000000  0.50000000  0.95922000  1.0
  Li  Li6  1  0.00575000  0.50000000  0.12190000  1.0
  Li  Li7  1  0.01460000  0.00000000  0.12044000  1.0
  Li  Li8  1  0.24509000  0.00000000  0.03635000  1.0
  Li  Li9  1  0.24756000  0.50000000  0.03766000  1.0
  Li  Li10  1  0.25000000  0.00000000  0.87766000  1.0
  Li  Li11  1  0.25000000  0.50000000  0.87766000  1.0
  Ga  Ga12  2  0.25000000  0.25001000  0.95922000  1.0
  Ga  Ga13  2  0.26744000  0.25213000  0.12280000  1.0
  Ga  Ga14  1  0.75000000  0.00000000  0.87766000  1.0
  Ga  Ga15  1  0.75000000  0.50000000  0.87766000  1.0
  Ga  Ga16  1  0.75524000  0.50000000  0.04008000  1.0
  Ga  Ga17  1  0.75566000  0.00000000  0.03975000  1.0
  Pt  Pt18  2  0.00000000  0.25001000  0.87766000  1.0
  Pt  Pt19  2  0.99784000  0.24996000  0.04400000  1.0
  Pt  Pt20  1  0.48184000  0.00000000  0.11242000  1.0
  Pt  Pt21  1  0.49335000  0.50000000  0.11476000  1.0
  Pt  Pt22  1  0.50000000  0.00000000  0.95922000  1.0
  Pt  Pt23  1  0.50000000  0.50000000  0.95922000  1.0
  C  C24  1  0.93629000  0.00000000  0.19570000  1.0
  O  O25  1  0.91393000  0.00000000  0.23875000  1.0
