# generated using pymatgen
data_Li24Pd8C
_symmetry_space_group_name_H-M   'P 1'
_cell_length_a   6.21964000
_cell_length_b   8.79589000
_cell_length_c   26.59690000
_cell_angle_alpha   90.00000000
_cell_angle_beta   90.00000000
_cell_angle_gamma   90.00000000
_symmetry_Int_Tables_number   1
_chemical_formula_structural   Li24Pd8C
_chemical_formula_sum   'Li24 Pd8 C1'
_cell_volume   1455.04377030
_cell_formula_units_Z   1
loop_
 _symmetry_equiv_pos_site_id
 _symmetry_equiv_pos_as_xyz
  1  'x, y, z'
loop_
 _atom_site_type_symbol
 _atom_site_label
 _atom_site_symmetry_multiplicity
 _atom_site_fract_x
 _atom_site_fract_y
 _atom_site_fract_z
 _atom_site_occupancy
  Li  Li0  1  0.75002000  0.50000000  0.95866000  1.0
  Li  Li1  1  0.25002000  0.00000000  0.95866000  1.0
  Li  Li2  1  0.24998000  0.50000000  0.95866000  1.0
  Li  Li3  1  0.74998000  0.00000000  0.95866000  1.0
  Li  Li4  1  0.25002000  0.25001000  0.87598000  1.0
  Li  Li5  1  0.74998000  0.74999000  0.87598000  1.0
  Li  Li6  1  0.74998000  0.25001000  0.87598000  1.0
  Li  Li7  1  0.25002000  0.74999000  0.87598000  1.0
  Li  Li8  1  0.50000000  0.25001000  0.95866000  1.0
  Li  Li9  1  0.00000000  0.50000000  0.87598000  1.0
  Li  Li10  1  0.50000000  0.74999000  0.95866000  1.0
  Li  Li11  1  0.00000000  0.00000000  0.87598000  1.0
  Li  Li12  1  0.76333000  0.00000000  0.13325000  1.0
  Li  Li13  1  0.21714000  0.50000000  0.14707000  1.0
  Li  Li14  1  0.23667000  0.00000000  0.13325000  1.0
  Li  Li15  1  0.78286000  0.50000000  0.14707000  1.0
  Li  Li16  1  0.25373000  0.74878000  0.04300000  1.0
  Li  Li17  1  0.74627000  0.25122000  0.04300000  1.0
  Li  Li18  1  0.74627000  0.74878000  0.04300000  1.0
  Li  Li19  1  0.25373000  0.25122000  0.04300000  1.0
  Li  Li20  1  0.50000000  0.73320000  0.12420000  1.0
  Li  Li21  1  0.00000000  0.00000000  0.04573000  1.0
  Li  Li22  1  0.50000000  0.26680000  0.12420000  1.0
  Li  Li23  1  0.00000000  0.50000000  0.05375000  1.0
  Pd  Pd24  1  0.50000000  0.50000000  0.87598000  1.0
  Pd  Pd25  1  0.00000000  0.75001000  0.95866000  1.0
  Pd  Pd26  1  0.00000000  0.24999000  0.95866000  1.0
  Pd  Pd27  1  0.50000000  0.00000000  0.87598000  1.0
  Pd  Pd28  1  0.50000000  0.00000000  0.05071000  1.0
  Pd  Pd29  1  0.00000000  0.24458000  0.11995000  1.0
  Pd  Pd30  1  0.00000000  0.75542000  0.11995000  1.0
  Pd  Pd31  1  0.50000000  0.50000000  0.03661000  1.0
  C  C32  1  0.50000000  0.50000000  0.10857000  1.0
