data_image0
_chemical_formula_structural       Fe3PtFe3PtFe3PtFe3PtFe3PtFe3PtFe3PtFe3PtCO
_chemical_formula_sum              "Fe24 Pt8 C1 O1"
_cell_length_a       7.52786
_cell_length_b       7.52786
_cell_length_c       25.6459
_cell_angle_alpha    90
_cell_angle_beta     90
_cell_angle_gamma    90

_space_group_name_H-M_alt    "P 1"
_space_group_IT_number       1

loop_
  _space_group_symop_operation_xyz
  'x, y, z'

loop_
  _atom_site_type_symbol
  _atom_site_label
  _atom_site_symmetry_multiplicity
  _atom_site_fract_x
  _atom_site_fract_y
  _atom_site_fract_z
  _atom_site_occupancy
  Fe  Fe1       1.0  0.00000  0.25000  0.03669  1.0000
  Fe  Fe2       1.0  0.25000  0.00000  0.03669  1.0000
  Fe  Fe3       1.0  0.25000  0.25000  0.11007  1.0000
  Pt  Pt1       1.0  0.00000  0.00000  0.11007  1.0000
  Fe  Fe4       1.0  0.00000  0.25000  0.88993  1.0000
  Fe  Fe5       1.0  0.25000  0.00000  0.88993  1.0000
  Fe  Fe6       1.0  0.25000  0.25000  0.96331  1.0000
  Pt  Pt2       1.0  0.00000  0.00000  0.96331  1.0000
  Fe  Fe7       1.0  0.00000  0.75000  0.03669  1.0000
  Fe  Fe8       1.0  0.25000  0.50000  0.03669  1.0000
  Fe  Fe9       1.0  0.25000  0.75000  0.11007  1.0000
  Pt  Pt3       1.0  0.00000  0.50000  0.11007  1.0000
  Fe  Fe10      1.0  0.00000  0.75000  0.88993  1.0000
  Fe  Fe11      1.0  0.25000  0.50000  0.88993  1.0000
  Fe  Fe12      1.0  0.25000  0.75000  0.96331  1.0000
  Pt  Pt4       1.0  0.00000  0.50000  0.96331  1.0000
  Fe  Fe13      1.0  0.50000  0.25000  0.03669  1.0000
  Fe  Fe14      1.0  0.75000  0.00000  0.03669  1.0000
  Fe  Fe15      1.0  0.75000  0.25000  0.11007  1.0000
  Pt  Pt5       1.0  0.50000  0.00000  0.11007  1.0000
  Fe  Fe16      1.0  0.50000  0.25000  0.88993  1.0000
  Fe  Fe17      1.0  0.75000  0.00000  0.88993  1.0000
  Fe  Fe18      1.0  0.75000  0.25000  0.96331  1.0000
  Pt  Pt6       1.0  0.50000  0.00000  0.96331  1.0000
  Fe  Fe19      1.0  0.50000  0.75000  0.03669  1.0000
  Fe  Fe20      1.0  0.75000  0.50000  0.03669  1.0000
  Fe  Fe21      1.0  0.75000  0.75000  0.11007  1.0000
  Pt  Pt7       1.0  0.50000  0.50000  0.11007  1.0000
  Fe  Fe22      1.0  0.50000  0.75000  0.88993  1.0000
  Fe  Fe23      1.0  0.75000  0.50000  0.88993  1.0000
  Fe  Fe24      1.0  0.75000  0.75000  0.96331  1.0000
  Pt  Pt8       1.0  0.50000  0.50000  0.96331  1.0000
  C   C1        1.0  0.25000  0.25000  0.18416  1.0000
  O   O1        1.0  0.25000  0.25000  0.22900  1.0000
