# generated using pymatgen
data_Li4Sc4Al4In4C
_symmetry_space_group_name_H-M   'P 1'
_cell_length_a   6.08380000
_cell_length_b   8.37392000
_cell_length_c   24.56130000
_cell_angle_alpha   90.00000000
_cell_angle_beta   90.00000000
_cell_angle_gamma   90.00000000
_symmetry_Int_Tables_number   1
_chemical_formula_structural   Li4Sc4Al4In4C
_chemical_formula_sum   'Li4 Sc4 Al4 In4 C1'
_cell_volume   1251.28167925
_cell_formula_units_Z   1
loop_
 _symmetry_equiv_pos_site_id
 _symmetry_equiv_pos_as_xyz
  1  'x, y, z'
loop_
 _atom_site_type_symbol
 _atom_site_label
 _atom_site_symmetry_multiplicity
 _atom_site_fract_x
 _atom_site_fract_y
 _atom_site_fract_z
 _atom_site_occupancy
  Li  Li0  1  0.44969000  0.98974000  0.90118000  1.0
  Li  Li1  1  0.01285000  0.00000000  0.03095000  1.0
  Li  Li2  1  0.44958000  0.51067000  0.90125000  1.0
  Li  Li3  1  0.01285000  0.50000000  0.03095000  1.0
  Sc  Sc4  1  0.72999000  0.75013000  0.96963000  1.0
  Sc  Sc5  1  0.26927000  0.75000000  0.09286000  1.0
  Sc  Sc6  1  0.73486000  0.25039000  0.96125000  1.0
  Sc  Sc7  1  0.26927000  0.25000000  0.09286000  1.0
  Al  Al8  1  0.93403000  0.98389000  0.90193000  1.0
  Al  Al9  1  0.51285000  0.00000000  0.03095000  1.0
  Al  Al10  1  0.93417000  0.51690000  0.90181000  1.0
  Al  Al11  1  0.51285000  0.50000000  0.03095000  1.0
  In  In12  1  0.24396000  0.75005000  0.96968000  1.0
  In  In13  1  0.76927000  0.75000000  0.09286000  1.0
  In  In14  1  0.23624000  0.25004000  0.95935000  1.0
  In  In15  1  0.76927000  0.25000000  0.09286000  1.0
  C  C16  1  0.96610000  0.75041000  0.90277000  1.0
