# generated using pymatgen
data_Li8Mg8In8Pb8CO
_symmetry_space_group_name_H-M   'P 1'
_cell_length_a   7.11424000
_cell_length_b   10.06110000
_cell_length_c   27.54580000
_cell_angle_alpha   90.00000000
_cell_angle_beta   90.00000000
_cell_angle_gamma   90.00000000
_symmetry_Int_Tables_number   1
_chemical_formula_structural   Li8Mg8In8Pb8CO
_chemical_formula_sum   'Li8 Mg8 In8 Pb8 C1 O1'
_cell_volume   1971.64793203
_cell_formula_units_Z   1
loop_
 _symmetry_equiv_pos_site_id
 _symmetry_equiv_pos_as_xyz
  1  'x, y, z'
loop_
 _atom_site_type_symbol
 _atom_site_label
 _atom_site_symmetry_multiplicity
 _atom_site_fract_x
 _atom_site_fract_y
 _atom_site_fract_z
 _atom_site_occupancy
  Li  Li0  1  0.75000000  0.00000000  0.95434000  1.0
  Li  Li1  1  0.75000000  0.50000000  0.95434000  1.0
  Li  Li2  1  0.25000000  0.25000000  0.86303000  1.0
  Li  Li3  1  0.25000000  0.75000000  0.86303000  1.0
  Li  Li4  1  0.75033000  0.49724000  0.14174000  1.0
  Li  Li5  1  0.74969000  0.99914000  0.14180000  1.0
  Li  Li6  1  0.24482000  0.75057000  0.05030000  1.0
  Li  Li7  1  0.25202000  0.24996000  0.04968000  1.0
  Mg  Mg8  1  0.25000000  0.00000000  0.95434000  1.0
  Mg  Mg9  1  0.25000000  0.50000000  0.95434000  1.0
  Mg  Mg10  1  0.75000000  0.25000000  0.86303000  1.0
  Mg  Mg11  1  0.75000000  0.75000000  0.86303000  1.0
  Mg  Mg12  1  0.24978000  0.49939000  0.14736000  1.0
  Mg  Mg13  1  0.24995000  0.99685000  0.14716000  1.0
  Mg  Mg14  1  0.75744000  0.74978000  0.05219000  1.0
  Mg  Mg15  1  0.75017000  0.25095000  0.05163000  1.0
  In  In16  1  0.00000000  0.00000000  0.86303000  1.0
  In  In17  1  0.00000000  0.50000000  0.86303000  1.0
  In  In18  1  0.50000000  0.75000000  0.95434000  1.0
  In  In19  1  0.50000000  0.25000000  0.95434000  1.0
  In  In20  1  0.00689000  0.49856000  0.05174000  1.0
  In  In21  1  0.00596000  0.00231000  0.05171000  1.0
  In  In22  1  0.50286000  0.24847000  0.15134000  1.0
  In  In23  1  0.50607000  0.74849000  0.15110000  1.0
  Pb  Pb24  1  0.00000000  0.25000000  0.95434000  1.0
  Pb  Pb25  1  0.00000000  0.75000000  0.95434000  1.0
  Pb  Pb26  1  0.50000000  0.50000000  0.86303000  1.0
  Pb  Pb27  1  0.50000000  0.00000000  0.86303000  1.0
  Pb  Pb28  1  0.99231000  0.74820000  0.15190000  1.0
  Pb  Pb29  1  0.99475000  0.24792000  0.14980000  1.0
  Pb  Pb30  1  0.49760000  0.99879000  0.05096000  1.0
  Pb  Pb31  1  0.49662000  0.50170000  0.05088000  1.0
  C  C32  1  0.91535000  0.25816000  0.28959000  1.0
  O  O33  1  0.04281000  0.24676000  0.31410000  1.0
