# generated using pymatgen
data_Ni24Sb8CO
_symmetry_space_group_name_H-M   Pmm2
_cell_length_a   5.97820000
_cell_length_b   8.45446000
_cell_length_c   26.34080000
_cell_angle_alpha   90.00000000
_cell_angle_beta   90.00000000
_cell_angle_gamma   90.00000000
_symmetry_Int_Tables_number   25
_chemical_formula_structural   Ni24Sb8CO
_chemical_formula_sum   'Ni24 Sb8 C1 O1'
_cell_volume   1331.32863998
_cell_formula_units_Z   1
loop_
 _symmetry_equiv_pos_site_id
 _symmetry_equiv_pos_as_xyz
  1  'x, y, z'
  2  '-x, -y, z'
  3  '-x, y, z'
  4  'x, -y, z'
loop_
 _atom_site_type_symbol
 _atom_site_label
 _atom_site_symmetry_multiplicity
 _atom_site_fract_x
 _atom_site_fract_y
 _atom_site_fract_z
 _atom_site_occupancy
  Ni  Ni0  4  0.24992000  0.25030000  0.11628000  1.0
  Ni  Ni1  4  0.24996000  0.25001000  0.95988000  1.0
  Ni  Ni2  2  0.24996000  0.00000000  0.87964000  1.0
  Ni  Ni3  2  0.25004000  0.50000000  0.87964000  1.0
  Ni  Ni4  2  0.25102000  0.00000000  0.04020000  1.0
  Ni  Ni5  2  0.27371000  0.50000000  0.04307000  1.0
  Ni  Ni6  2  0.50000000  0.24516000  0.03859000  1.0
  Ni  Ni7  2  0.50000000  0.25001000  0.87964000  1.0
  Ni  Ni8  1  0.00000000  0.00000000  0.11640000  1.0
  Ni  Ni9  1  0.00000000  0.00000000  0.95988000  1.0
  Ni  Ni10  1  0.00000000  0.50000000  0.11552000  1.0
  Ni  Ni11  1  0.00000000  0.50000000  0.95988000  1.0
  Sb  Sb12  2  0.00000000  0.25001000  0.87964000  1.0
  Sb  Sb13  2  0.00000000  0.25620000  0.03871000  1.0
  Sb  Sb14  1  0.50000000  0.00000000  0.12406000  1.0
  Sb  Sb15  1  0.50000000  0.00000000  0.95988000  1.0
  Sb  Sb16  1  0.50000000  0.50000000  0.13083000  1.0
  Sb  Sb17  1  0.50000000  0.50000000  0.95988000  1.0
  C  C18  1  0.50000000  0.00000000  0.27481000  1.0
  O  O19  1  0.50000000  0.00000000  0.31779000  1.0
