# generated using pymatgen
data_LiInCuSn
_symmetry_space_group_name_H-M   P1
_cell_length_a   6.73938000
_cell_length_b   6.73938000
_cell_length_c   25.05450000
_cell_angle_alpha   90.00000000
_cell_angle_beta   90.00000000
_cell_angle_gamma   90.00000000
_symmetry_Int_Tables_number   1
_chemical_formula_structural   LiInCuSn
_chemical_formula_sum   'Li4 In4 Cu4 Sn4'
_cell_volume   1137.95641834
_cell_formula_units_Z   4
loop_
 _symmetry_equiv_pos_site_id
 _symmetry_equiv_pos_as_xyz
  1  'x, y, z'
loop_
 _atom_site_type_symbol
 _atom_site_label
 _atom_site_symmetry_multiplicity
 _atom_site_fract_x
 _atom_site_fract_y
 _atom_site_fract_z
 _atom_site_occupancy
  Li  Li0  1  0.00000000  0.00008000  0.03519000  1.0
  Li  Li1  1  0.00000000  0.50000000  0.89913000  1.0
  Li  Li2  1  0.50000000  0.00000000  0.89913000  1.0
  Li  Li3  1  0.50002000  0.50001000  0.03489000  1.0
  In  In4  1  0.24983000  0.75028000  0.10923000  1.0
  In  In5  1  0.25000000  0.25000000  0.96638000  1.0
  In  In6  1  0.75000000  0.75000000  0.96638000  1.0
  In  In7  1  0.75016000  0.24971000  0.10924000  1.0
  Cu  Cu8  1  0.00000000  0.00000000  0.89913000  1.0
  Cu  Cu9  1  0.00002000  0.49998000  0.02697000  1.0
  Cu  Cu10  1  0.49999000  0.00000000  0.02698000  1.0
  Cu  Cu11  1  0.50000000  0.50000000  0.89913000  1.0
  Sn  Sn12  1  0.24957000  0.24951000  0.09967000  1.0
  Sn  Sn13  1  0.25000000  0.75000000  0.96638000  1.0
  Sn  Sn14  1  0.75000000  0.25000000  0.96638000  1.0
  Sn  Sn15  1  0.75043000  0.75049000  0.09966000  1.0
