# generated using pymatgen
data_Zr16Ti8Al8CO
_symmetry_space_group_name_H-M   Pmm2
_cell_length_a   6.81091000
_cell_length_b   9.63207000
_cell_length_c   27.22410000
_cell_angle_alpha   90.00000000
_cell_angle_beta   90.00000000
_cell_angle_gamma   90.00000000
_symmetry_Int_Tables_number   25
_chemical_formula_structural   Zr16Ti8Al8CO
_chemical_formula_sum   'Zr16 Ti8 Al8 C1 O1'
_cell_volume   1785.98703944
_cell_formula_units_Z   1
loop_
 _symmetry_equiv_pos_site_id
 _symmetry_equiv_pos_as_xyz
  1  'x, y, z'
  2  '-x, -y, z'
  3  '-x, y, z'
  4  'x, -y, z'
loop_
 _atom_site_type_symbol
 _atom_site_label
 _atom_site_symmetry_multiplicity
 _atom_site_fract_x
 _atom_site_fract_y
 _atom_site_fract_z
 _atom_site_occupancy
  Zr  Zr0  4  0.25000000  0.24999000  0.95577000  1.0
  Zr  Zr1  4  0.26384000  0.25417000  0.13257000  1.0
  Zr  Zr2  2  0.24972000  0.50000000  0.04533000  1.0
  Zr  Zr3  2  0.25000000  0.00000000  0.86732000  1.0
  Zr  Zr4  2  0.25000000  0.50000000  0.86732000  1.0
  Zr  Zr5  2  0.26451000  0.00000000  0.04330000  1.0
  Ti  Ti6  2  0.00000000  0.24475000  0.05434000  1.0
  Ti  Ti7  2  0.00000000  0.24999000  0.86732000  1.0
  Ti  Ti8  1  0.50000000  0.00000000  0.13011000  1.0
  Ti  Ti9  1  0.50000000  0.00000000  0.95577000  1.0
  Ti  Ti10  1  0.50000000  0.50000000  0.13207000  1.0
  Ti  Ti11  1  0.50000000  0.50000000  0.95577000  1.0
  Al  Al12  2  0.50000000  0.24999000  0.86732000  1.0
  Al  Al13  2  0.50000000  0.25424000  0.04381000  1.0
  Al  Al14  1  0.00000000  0.00000000  0.12246000  1.0
  Al  Al15  1  0.00000000  0.00000000  0.95577000  1.0
  Al  Al16  1  0.00000000  0.50000000  0.13107000  1.0
  Al  Al17  1  0.00000000  0.50000000  0.95577000  1.0
  C  C18  1  0.00000000  0.00000000  0.19425000  1.0
  O  O19  1  0.00000000  0.00000000  0.23737000  1.0
