# generated using pymatgen
data_Ag12Pt4C
_symmetry_space_group_name_H-M   Pmm2
_cell_length_a   5.88450000
_cell_length_b   8.32195000
_cell_length_c   24.41340000
_cell_angle_alpha   90.00000000
_cell_angle_beta   90.00000000
_cell_angle_gamma   90.00000000
_symmetry_Int_Tables_number   25
_chemical_formula_structural   Ag12Pt4C
_chemical_formula_sum   'Ag12 Pt4 C1'
_cell_volume   1195.53676541
_cell_formula_units_Z   1
loop_
 _symmetry_equiv_pos_site_id
 _symmetry_equiv_pos_as_xyz
  1  'x, y, z'
  2  '-x, -y, z'
  3  '-x, y, z'
  4  'x, -y, z'
loop_
 _atom_site_type_symbol
 _atom_site_label
 _atom_site_symmetry_multiplicity
 _atom_site_fract_x
 _atom_site_fract_y
 _atom_site_fract_z
 _atom_site_occupancy
  Ag  Ag0  4  0.25000000  0.25000000  0.03013000  1.0
  Ag  Ag1  4  0.25519000  0.25450000  0.90895000  1.0
  Ag  Ag2  1  0.00000000  0.00000000  0.97057000  1.0
  Ag  Ag3  1  0.00000000  0.50000000  0.96866000  1.0
  Ag  Ag4  1  0.50000000  0.00000000  0.09039000  1.0
  Ag  Ag5  1  0.50000000  0.50000000  0.09039000  1.0
  Pt  Pt6  1  0.00000000  0.00000000  0.09039000  1.0
  Pt  Pt7  1  0.00000000  0.50000000  0.09039000  1.0
  Pt  Pt8  1  0.50000000  0.00000000  0.97000000  1.0
  Pt  Pt9  1  0.50000000  0.50000000  0.96982000  1.0
  C  C10  1  0.50000000  0.00000000  0.89460000  1.0
