# generated using pymatgen
data_LiScInGe
_symmetry_space_group_name_H-M   'P 1'
_cell_length_a   8.22048000
_cell_length_b   6.05318000
_cell_length_c   24.51760000
_cell_angle_alpha   90.00000000
_cell_angle_beta   90.00000000
_cell_angle_gamma   90.00000000
_symmetry_Int_Tables_number   1
_chemical_formula_structural   LiScInGe
_chemical_formula_sum   'Li4 Sc4 In4 Ge4'
_cell_volume   1219.99688239
_cell_formula_units_Z   4
loop_
 _symmetry_equiv_pos_site_id
 _symmetry_equiv_pos_as_xyz
  1  'x, y, z'
loop_
 _atom_site_type_symbol
 _atom_site_label
 _atom_site_symmetry_multiplicity
 _atom_site_fract_x
 _atom_site_fract_y
 _atom_site_fract_z
 _atom_site_occupancy
  Li  Li0  1  0.75001000  0.51402000  0.88965000  1.0
  Li  Li1  1  0.75000000  0.95056000  0.03071000  1.0
  Li  Li2  1  0.24999000  0.51402000  0.88965000  1.0
  Li  Li3  1  0.25000000  0.95056000  0.03071000  1.0
  Sc  Sc4  1  0.00000000  0.27355000  0.96636000  1.0
  Sc  Sc5  1  0.00000000  0.67584000  0.09213000  1.0
  Sc  Sc6  1  0.50000000  0.27353000  0.96640000  1.0
  Sc  Sc7  1  0.50000000  0.67584000  0.09213000  1.0
  In  In8  1  0.00000000  0.76766000  0.94478000  1.0
  In  In9  1  0.00000000  0.17584000  0.09213000  1.0
  In  In10  1  0.50000000  0.76765000  0.94479000  1.0
  In  In11  1  0.50000000  0.17584000  0.09213000  1.0
  Ge  Ge12  1  0.74999000  0.05306000  0.91718000  1.0
  Ge  Ge13  1  0.75000000  0.45056000  0.03071000  1.0
  Ge  Ge14  1  0.25001000  0.05306000  0.91718000  1.0
  Ge  Ge15  1  0.25000000  0.45056000  0.03071000  1.0
