# generated using pymatgen
data_Li8Cu8Pd8Pb8CO
_symmetry_space_group_name_H-M   Pm
_cell_length_a   6.46272000
_cell_length_b   9.13966000
_cell_length_c   26.85470000
_cell_angle_alpha   90.00000000
_cell_angle_beta   90.00000000
_cell_angle_gamma   90.00000000
_symmetry_Int_Tables_number   6
_chemical_formula_structural   Li8Cu8Pd8Pb8CO
_chemical_formula_sum   'Li8 Cu8 Pd8 Pb8 C1 O1'
_cell_volume   1586.22826951
_cell_formula_units_Z   1
loop_
 _symmetry_equiv_pos_site_id
 _symmetry_equiv_pos_as_xyz
  1  'x, y, z'
  2  'x, -y, z'
loop_
 _atom_site_type_symbol
 _atom_site_label
 _atom_site_symmetry_multiplicity
 _atom_site_fract_x
 _atom_site_fract_y
 _atom_site_fract_z
 _atom_site_occupancy
  Li  Li0  2  0.50000000  0.25000000  0.87237000  1.0
  Li  Li1  2  0.51695000  0.25779000  0.04322000  1.0
  Li  Li2  1  -0.00000000  0.50000000  0.95746000  1.0
  Li  Li3  1  -0.00000000  0.00000000  0.95746000  1.0
  Li  Li4  1  0.02429000  0.00000000  0.13336000  1.0
  Li  Li5  1  0.08489000  0.50000000  0.14981000  1.0
  Cu  Cu6  2  0.00000000  0.25000000  0.87237000  1.0
  Cu  Cu7  2  0.98044000  0.23909000  0.04375000  1.0
  Cu  Cu8  1  0.50000000  0.00000000  0.95746000  1.0
  Cu  Cu9  1  0.50000000  0.50000000  0.95746000  1.0
  Cu  Cu10  1  0.50029000  0.00000000  0.13365000  1.0
  Cu  Cu11  1  0.50468000  0.50000000  0.12090000  1.0
  Pd  Pd12  2  0.25000000  0.25000000  0.95746000  1.0
  Pd  Pd13  2  0.26419000  0.25479000  0.11625000  1.0
  Pd  Pd14  1  0.73436000  0.00000000  0.05388000  1.0
  Pd  Pd15  1  0.75000000  0.00000000  0.87237000  1.0
  Pd  Pd16  1  0.75000000  0.50000000  0.87237000  1.0
  Pd  Pd17  1  0.76626000  0.50000000  0.04208000  1.0
  Pb  Pb18  2  0.75000000  0.25000000  0.95746000  1.0
  Pb  Pb19  2  0.76026000  0.26280000  0.13624000  1.0
  Pb  Pb20  1  0.22619000  0.50000000  0.04273000  1.0
  Pb  Pb21  1  0.25000000  0.00000000  0.87237000  1.0
  Pb  Pb22  1  0.25000000  0.50000000  0.87237000  1.0
  Pb  Pb23  1  0.25671000  0.00000000  0.04231000  1.0
  C  C24  1  0.41650000  0.00000000  0.19980000  1.0
  O  O25  1  0.37300000  0.00000000  0.24149000  1.0
