data_image0
_chemical_formula_structural       Ca16Ni16CO
_chemical_formula_sum              "Ca16 Ni16 C1 O1"
_cell_length_a       6.91175
_cell_length_b       9.77469
_cell_length_c       27.331
_cell_angle_alpha    90
_cell_angle_beta     90
_cell_angle_gamma    90

_space_group_name_H-M_alt    "P 1"
_space_group_IT_number       1

loop_
  _space_group_symop_operation_xyz
  'x, y, z'

loop_
  _atom_site_type_symbol
  _atom_site_label
  _atom_site_symmetry_multiplicity
  _atom_site_fract_x
  _atom_site_fract_y
  _atom_site_fract_z
  _atom_site_occupancy
  Ca  Ca1       1.0  0.00000  0.00000  0.86588  1.0000
  Ca  Ca2       1.0  0.00000  0.25000  0.95529  1.0000
  Ca  Ca3       1.0  0.00001  0.00013  0.04223  1.0000
  Ca  Ca4       1.0  0.00001  0.24995  0.13525  1.0000
  Ca  Ca5       1.0  0.00000  0.50000  0.86588  1.0000
  Ca  Ca6       1.0  0.00000  0.75000  0.95529  1.0000
  Ca  Ca7       1.0  0.00000  0.49986  0.04223  1.0000
  Ca  Ca8       1.0  0.00000  0.75002  0.14178  1.0000
  Ca  Ca9       1.0  0.50000  0.00000  0.86588  1.0000
  Ca  Ca10      1.0  0.50000  0.25000  0.95529  1.0000
  Ca  Ca11      1.0  0.50000  0.99715  0.04288  1.0000
  Ca  Ca12      1.0  0.50000  0.25000  0.13951  1.0000
  Ca  Ca13      1.0  0.50000  0.50000  0.86588  1.0000
  Ca  Ca14      1.0  0.50000  0.75000  0.95529  1.0000
  Ca  Ca15      1.0  0.49999  0.50285  0.04288  1.0000
  Ca  Ca16      1.0  0.50000  0.74997  0.14169  1.0000
  Ni  Ni1       1.0  0.25000  0.25000  0.86588  1.0000
  Ni  Ni2       1.0  0.25000  0.00000  0.95529  1.0000
  Ni  Ni3       1.0  0.26292  0.25004  0.05135  1.0000
  Ni  Ni4       1.0  0.25110  0.99276  0.12219  1.0000
  Ni  Ni5       1.0  0.25000  0.75000  0.86588  1.0000
  Ni  Ni6       1.0  0.25000  0.50000  0.95529  1.0000
  Ni  Ni7       1.0  0.24758  0.74997  0.05669  1.0000
  Ni  Ni8       1.0  0.25096  0.50721  0.12217  1.0000
  Ni  Ni9       1.0  0.75000  0.25000  0.86588  1.0000
  Ni  Ni10      1.0  0.75000  0.00000  0.95529  1.0000
  Ni  Ni11      1.0  0.73708  0.25004  0.05135  1.0000
  Ni  Ni12      1.0  0.74891  0.99275  0.12220  1.0000
  Ni  Ni13      1.0  0.75000  0.75000  0.86588  1.0000
  Ni  Ni14      1.0  0.75000  0.50000  0.95529  1.0000
  Ni  Ni15      1.0  0.75242  0.74999  0.05670  1.0000
  Ni  Ni16      1.0  0.74903  0.50721  0.12218  1.0000
  C   C1        1.0  0.99999  0.25000  0.23095  1.0000
  O   O1        1.0  1.00000  0.25004  0.27286  1.0000
