# generated using pymatgen
data_Ca16Ni16CO
_symmetry_space_group_name_H-M   'P 1'
_cell_length_a   9.77469000
_cell_length_b   6.91175000
_cell_length_c   27.33100000
_cell_angle_alpha   90.00000000
_cell_angle_beta   90.00000000
_cell_angle_gamma   90.00000000
_symmetry_Int_Tables_number   1
_chemical_formula_structural   Ca16Ni16CO
_chemical_formula_sum   'Ca16 Ni16 C1 O1'
_cell_volume   1846.48819811
_cell_formula_units_Z   1
loop_
 _symmetry_equiv_pos_site_id
 _symmetry_equiv_pos_as_xyz
  1  'x, y, z'
loop_
 _atom_site_type_symbol
 _atom_site_label
 _atom_site_symmetry_multiplicity
 _atom_site_fract_x
 _atom_site_fract_y
 _atom_site_fract_z
 _atom_site_occupancy
  Ca  Ca0  1  0.00000000  0.00000000  0.13412000  1.0
  Ca  Ca1  1  0.25000000  0.00000000  0.04471000  1.0
  Ca  Ca2  1  0.00013000  0.00000000  0.95777000  1.0
  Ca  Ca3  1  0.24995000  0.00000000  0.86475000  1.0
  Ca  Ca4  1  0.50000000  0.00000000  0.13412000  1.0
  Ca  Ca5  1  0.75000000  0.00000000  0.04471000  1.0
  Ca  Ca6  1  0.49986000  0.00000000  0.95777000  1.0
  Ca  Ca7  1  0.75002000  0.00000000  0.85822000  1.0
  Ca  Ca8  1  0.00000000  0.50000000  0.13412000  1.0
  Ca  Ca9  1  0.25000000  0.50000000  0.04471000  1.0
  Ca  Ca10  1  0.99715000  0.50000000  0.95712000  1.0
  Ca  Ca11  1  0.25000000  0.50000000  0.86049000  1.0
  Ca  Ca12  1  0.50000000  0.50000000  0.13412000  1.0
  Ca  Ca13  1  0.75000000  0.50000000  0.04471000  1.0
  Ca  Ca14  1  0.50285000  0.50000000  0.95712000  1.0
  Ca  Ca15  1  0.74997000  0.50000000  0.85831000  1.0
  Ni  Ni16  1  0.25000000  0.74999000  0.13412000  1.0
  Ni  Ni17  1  0.00000000  0.74999000  0.04471000  1.0
  Ni  Ni18  1  0.25004000  0.73707000  0.94865000  1.0
  Ni  Ni19  1  0.99276000  0.74889000  0.87781000  1.0
  Ni  Ni20  1  0.75000000  0.74999000  0.13412000  1.0
  Ni  Ni21  1  0.50000000  0.74999000  0.04471000  1.0
  Ni  Ni22  1  0.74997000  0.75241000  0.94331000  1.0
  Ni  Ni23  1  0.50721000  0.74903000  0.87783000  1.0
  Ni  Ni24  1  0.25000000  0.25001000  0.13412000  1.0
  Ni  Ni25  1  0.00000000  0.25001000  0.04471000  1.0
  Ni  Ni26  1  0.25004000  0.26293000  0.94865000  1.0
  Ni  Ni27  1  0.99276000  0.25111000  0.87781000  1.0
  Ni  Ni28  1  0.75000000  0.25001000  0.13412000  1.0
  Ni  Ni29  1  0.50000000  0.25001000  0.04471000  1.0
  Ni  Ni30  1  0.74997000  0.24759000  0.94331000  1.0
  Ni  Ni31  1  0.50721000  0.25097000  0.87783000  1.0
  C  C32  1  0.25000000  0.00000000  0.76905000  1.0
  O  O33  1  0.25004000  0.00000000  0.72714000  1.0
