# generated using pymatgen
data_Ca16Ni16CO
_symmetry_space_group_name_H-M   Pm
_cell_length_a   9.77469000
_cell_length_b   6.91175000
_cell_length_c   27.33100000
_cell_angle_alpha   90.00000000
_cell_angle_beta   90.00000000
_cell_angle_gamma   90.00000000
_symmetry_Int_Tables_number   6
_chemical_formula_structural   Ca16Ni16CO
_chemical_formula_sum   'Ca16 Ni16 C1 O1'
_cell_volume   1846.48819811
_cell_formula_units_Z   1
loop_
 _symmetry_equiv_pos_site_id
 _symmetry_equiv_pos_as_xyz
  1  'x, y, z'
  2  'x, -y, z'
loop_
 _atom_site_type_symbol
 _atom_site_label
 _atom_site_symmetry_multiplicity
 _atom_site_fract_x
 _atom_site_fract_y
 _atom_site_fract_z
 _atom_site_occupancy
  Ca  Ca0  1  0.00000000  0.00000000  0.86588000  1.0
  Ca  Ca1  1  0.00000000  0.50000000  0.86588000  1.0
  Ca  Ca2  1  0.00013000  0.00000000  0.04223000  1.0
  Ca  Ca3  1  0.24995000  0.00000000  0.13525000  1.0
  Ca  Ca4  1  0.25000000  0.00000000  0.95529000  1.0
  Ca  Ca5  1  0.25000000  0.50000000  0.13951000  1.0
  Ca  Ca6  1  0.25000000  0.50000000  0.95529000  1.0
  Ca  Ca7  1  0.49986000  0.00000000  0.04223000  1.0
  Ca  Ca8  1  0.50000000  0.00000000  0.86588000  1.0
  Ca  Ca9  1  0.50000000  0.50000000  0.86588000  1.0
  Ca  Ca10  1  0.50285000  0.50000000  0.04288000  1.0
  Ca  Ca11  1  0.74997000  0.50000000  0.14169000  1.0
  Ca  Ca12  1  0.75000000  0.00000000  0.95529000  1.0
  Ca  Ca13  1  0.75000000  0.50000000  0.95529000  1.0
  Ca  Ca14  1  0.75002000  0.00000000  0.14178000  1.0
  Ca  Ca15  1  0.99715000  0.50000000  0.04288000  1.0
  Ni  Ni16  2  0.00000000  0.25001000  0.95529000  1.0
  Ni  Ni17  2  0.25000000  0.25001000  0.86588000  1.0
  Ni  Ni18  2  0.25004000  0.26293000  0.05135000  1.0
  Ni  Ni19  2  0.50000000  0.25001000  0.95529000  1.0
  Ni  Ni20  2  0.50721000  0.25097000  0.12217000  1.0
  Ni  Ni21  2  0.74997000  0.24759000  0.05669000  1.0
  Ni  Ni22  2  0.75000000  0.25001000  0.86588000  1.0
  Ni  Ni23  2  0.99276000  0.25111000  0.12219000  1.0
  C  C24  1  0.25000000  0.00000000  0.23095000  1.0
  O  O25  1  0.25004000  0.00000000  0.27286000  1.0
