# generated using pymatgen
data_Sc8Mn8In8Pd8CO
_symmetry_space_group_name_H-M   'P 1'
_cell_length_a   9.36632000
_cell_length_b   6.62299000
_cell_length_c   27.02470000
_cell_angle_alpha   90.00000000
_cell_angle_beta   90.00000000
_cell_angle_gamma   90.00000000
_symmetry_Int_Tables_number   1
_chemical_formula_structural   Sc8Mn8In8Pd8CO
_chemical_formula_sum   'Sc8 Mn8 In8 Pd8 C1 O1'
_cell_volume   1676.42439599
_cell_formula_units_Z   1
loop_
 _symmetry_equiv_pos_site_id
 _symmetry_equiv_pos_as_xyz
  1  'x, y, z'
loop_
 _atom_site_type_symbol
 _atom_site_label
 _atom_site_symmetry_multiplicity
 _atom_site_fract_x
 _atom_site_fract_y
 _atom_site_fract_z
 _atom_site_occupancy
  Sc  Sc0  1  0.25000000  0.00000000  0.04332000  1.0
  Sc  Sc1  1  0.75000000  0.00000000  0.04332000  1.0
  Sc  Sc2  1  0.50000000  0.50000000  0.12997000  1.0
  Sc  Sc3  1  0.00000000  0.50000000  0.12997000  1.0
  Sc  Sc4  1  0.72613000  0.99152000  0.87124000  1.0
  Sc  Sc5  1  0.27387000  0.99152000  0.87124000  1.0
  Sc  Sc6  1  0.00000000  0.49602000  0.95490000  1.0
  Sc  Sc7  1  0.50000000  0.51362000  0.95626000  1.0
  Mn  Mn8  1  0.00000000  0.75000000  0.04332000  1.0
  Mn  Mn9  1  0.50000000  0.75000000  0.04332000  1.0
  Mn  Mn10  1  0.25000000  0.25000000  0.12997000  1.0
  Mn  Mn11  1  0.75000000  0.25000000  0.12997000  1.0
  Mn  Mn12  1  0.50000000  0.68569000  0.85183000  1.0
  Mn  Mn13  1  0.00000000  0.76791000  0.86638000  1.0
  Mn  Mn14  1  0.74855000  0.24507000  0.95130000  1.0
  Mn  Mn15  1  0.25145000  0.24507000  0.95130000  1.0
  In  In16  1  0.00000000  0.00000000  0.12997000  1.0
  In  In17  1  0.50000000  0.00000000  0.12997000  1.0
  In  In18  1  0.75000000  0.50000000  0.04332000  1.0
  In  In19  1  0.25000000  0.50000000  0.04332000  1.0
  In  In20  1  0.50000000  0.99144000  0.95677000  1.0
  In  In21  1  0.00000000  0.00088000  0.95693000  1.0
  In  In22  1  0.23546000  0.50317000  0.86622000  1.0
  In  In23  1  0.76454000  0.50317000  0.86622000  1.0
  Pd  Pd24  1  0.00000000  0.25000000  0.04332000  1.0
  Pd  Pd25  1  0.50000000  0.25000000  0.04332000  1.0
  Pd  Pd26  1  0.25000000  0.75000000  0.12997000  1.0
  Pd  Pd27  1  0.75000000  0.75000000  0.12997000  1.0
  Pd  Pd28  1  0.50000000  0.27488000  0.87848000  1.0
  Pd  Pd29  1  0.00000000  0.21068000  0.86630000  1.0
  Pd  Pd30  1  0.75327000  0.75142000  0.95871000  1.0
  Pd  Pd31  1  0.24673000  0.75142000  0.95871000  1.0
  C  C32  1  0.00000000  0.16791000  0.79506000  1.0
  O  O33  1  0.00000000  0.16092000  0.75228000  1.0
