# generated using pymatgen
data_Sc8Mn8In8Pd8CO
_symmetry_space_group_name_H-M   Pm
_cell_length_a   6.62299000
_cell_length_b   9.36632000
_cell_length_c   27.02470000
_cell_angle_alpha   90.00000000
_cell_angle_beta   90.00000000
_cell_angle_gamma   90.00000000
_symmetry_Int_Tables_number   6
_chemical_formula_structural   Sc8Mn8In8Pd8CO
_chemical_formula_sum   'Sc8 Mn8 In8 Pd8 C1 O1'
_cell_volume   1676.42439599
_cell_formula_units_Z   1
loop_
 _symmetry_equiv_pos_site_id
 _symmetry_equiv_pos_as_xyz
  1  'x, y, z'
  2  'x, -y, z'
loop_
 _atom_site_type_symbol
 _atom_site_label
 _atom_site_symmetry_multiplicity
 _atom_site_fract_x
 _atom_site_fract_y
 _atom_site_fract_z
 _atom_site_occupancy
  Sc  Sc0  2  0.00000000  0.25000000  0.95668000  1.0
  Sc  Sc1  2  0.99152000  0.27387000  0.12876000  1.0
  Sc  Sc2  1  0.49602000  0.00000000  0.04510000  1.0
  Sc  Sc3  1  0.50000000  0.00000000  0.87003000  1.0
  Sc  Sc4  1  0.50000000  0.50000000  0.87003000  1.0
  Sc  Sc5  1  0.51362000  0.50000000  0.04374000  1.0
  Mn  Mn6  2  0.24507000  0.25145000  0.04870000  1.0
  Mn  Mn7  2  0.25000000  0.25000000  0.87003000  1.0
  Mn  Mn8  1  0.68569000  0.50000000  0.14817000  1.0
  Mn  Mn9  1  0.75000000  0.00000000  0.95668000  1.0
  Mn  Mn10  1  0.75000000  0.50000000  0.95668000  1.0
  Mn  Mn11  1  0.76791000  0.00000000  0.13362000  1.0
  In  In12  2  0.50000000  0.25000000  0.95668000  1.0
  In  In13  2  0.50317000  0.23546000  0.13378000  1.0
  In  In14  1  0.00000000  0.00000000  0.87003000  1.0
  In  In15  1  0.00000000  0.50000000  0.87003000  1.0
  In  In16  1  0.00088000  0.00000000  0.04307000  1.0
  In  In17  1  0.99144000  0.50000000  0.04323000  1.0
  Pd  Pd18  2  0.75000000  0.25000000  0.87003000  1.0
  Pd  Pd19  2  0.75142000  0.24673000  0.04129000  1.0
  Pd  Pd20  1  0.21068000  0.00000000  0.13370000  1.0
  Pd  Pd21  1  0.25000000  0.00000000  0.95668000  1.0
  Pd  Pd22  1  0.25000000  0.50000000  0.95668000  1.0
  Pd  Pd23  1  0.27488000  0.50000000  0.12152000  1.0
  C  C24  1  0.16791000  0.00000000  0.20494000  1.0
  O  O25  1  0.16092000  0.00000000  0.24772000  1.0
