# generated using pymatgen
data_Li8Sb4Pt4CO
_symmetry_space_group_name_H-M   P1
_cell_length_a   6.40528000
_cell_length_b   6.40528000
_cell_length_c   24.80400000
_cell_angle_alpha   90.00000000
_cell_angle_beta   90.00000000
_cell_angle_gamma   90.00000000
_symmetry_Int_Tables_number   1
_chemical_formula_structural   Li8Sb4Pt4CO
_chemical_formula_sum   'Li8 Sb4 Pt4 C1 O1'
_cell_volume   1017.64888503
_cell_formula_units_Z   1
loop_
 _symmetry_equiv_pos_site_id
 _symmetry_equiv_pos_as_xyz
  1  'x, y, z'
loop_
 _atom_site_type_symbol
 _atom_site_label
 _atom_site_symmetry_multiplicity
 _atom_site_fract_x
 _atom_site_fract_y
 _atom_site_fract_z
 _atom_site_occupancy
  Li  Li0  1  0.00000000  0.00000000  0.96772000  1.0
  Li  Li1  1  0.00008000  0.49994000  0.10032000  1.0
  Li  Li2  1  0.25000000  0.25000000  0.90316000  1.0
  Li  Li3  1  0.25080000  0.74921000  0.03419000  1.0
  Li  Li4  1  0.50000000  0.50000000  0.96772000  1.0
  Li  Li5  1  0.50010000  0.99996000  0.10032000  1.0
  Li  Li6  1  0.74930000  0.25072000  0.03419000  1.0
  Li  Li7  1  0.75000000  0.75000000  0.90316000  1.0
  Sb  Sb8  1  0.00000000  0.50000000  0.96772000  1.0
  Sb  Sb9  1  0.00006000  0.99997000  0.09775000  1.0
  Sb  Sb10  1  0.50000000  0.00000000  0.96772000  1.0
  Sb  Sb11  1  0.50006000  0.49997000  0.09833000  1.0
  Pt  Pt12  1  0.25000000  0.75000000  0.90316000  1.0
  Pt  Pt13  1  0.25010000  0.25005000  0.03162000  1.0
  Pt  Pt14  1  0.74997000  0.74993000  0.03163000  1.0
  Pt  Pt15  1  0.75000000  0.25000000  0.90316000  1.0
  C  C16  1  0.99828000  0.00096000  0.27925000  1.0
  O  O17  1  0.00051000  0.99968000  0.32500000  1.0
