# generated using pymatgen
data_ScAlNi2
_symmetry_space_group_name_H-M   Pmm2
_cell_length_a   4.30181000
_cell_length_b   6.08368000
_cell_length_c   26.45270000
_cell_angle_alpha   90.00000000
_cell_angle_beta   90.00000000
_cell_angle_gamma   90.00000000
_symmetry_Int_Tables_number   25
_chemical_formula_structural   ScAlNi2
_chemical_formula_sum   'Sc4 Al4 Ni8'
_cell_volume   692.28925919
_cell_formula_units_Z   4
loop_
 _symmetry_equiv_pos_site_id
 _symmetry_equiv_pos_as_xyz
  1  'x, y, z'
  2  '-x, -y, z'
  3  '-x, y, z'
  4  'x, -y, z'
loop_
 _atom_site_type_symbol
 _atom_site_label
 _atom_site_symmetry_multiplicity
 _atom_site_fract_x
 _atom_site_fract_y
 _atom_site_fract_z
 _atom_site_occupancy
  Sc  Sc0  1  0.00000000  0.00000000  0.12197000  1.0
  Sc  Sc1  1  0.00000000  0.00000000  0.96145000  1.0
  Sc  Sc2  1  0.50000000  0.50000000  0.04066000  1.0
  Sc  Sc3  1  0.50000000  0.50000000  0.87296500  1.0
  Al  Al4  1  0.00000000  0.50000000  0.12197000  1.0
  Al  Al5  1  0.00000000  0.50000000  0.95610000  1.0
  Al  Al6  1  0.50000000  0.00000000  0.04066000  1.0
  Al  Al7  1  0.50000000  0.00000000  0.88038500  1.0
  Ni  Ni8  2  0.00000000  0.22537500  0.88331000  1.0
  Ni  Ni9  2  0.00000000  0.25000000  0.04066000  1.0
  Ni  Ni10  2  0.50000000  0.25000000  0.12197000  1.0
  Ni  Ni11  2  0.50000000  0.26166500  0.95743500  1.0
