# generated using pymatgen
data_GaFeCo2
_symmetry_space_group_name_H-M   'P 1'
_cell_length_a   4.06098500
_cell_length_b   5.74310000
_cell_length_c   26.09150000
_cell_angle_alpha   90.00000000
_cell_angle_beta   90.00000000
_cell_angle_gamma   90.00000000
_symmetry_Int_Tables_number   1
_chemical_formula_structural   GaFeCo2
_chemical_formula_sum   'Ga4 Fe4 Co8'
_cell_volume   608.52273862
_cell_formula_units_Z   4
loop_
 _symmetry_equiv_pos_site_id
 _symmetry_equiv_pos_as_xyz
  1  'x, y, z'
loop_
 _atom_site_type_symbol
 _atom_site_label
 _atom_site_symmetry_multiplicity
 _atom_site_fract_x
 _atom_site_fract_y
 _atom_site_fract_z
 _atom_site_occupancy
  Ga  Ga0  1  0.00000000  0.00000000  0.11673000  1.0
  Ga  Ga1  1  0.50000000  0.50000000  0.03891000  1.0
  Ga  Ga2  1  0.00000000  0.00000000  0.96181000  1.0
  Ga  Ga3  1  0.50000000  0.50000000  0.87659000  1.0
  Fe  Fe4  1  0.50000000  0.00000000  0.03891000  1.0
  Fe  Fe5  1  0.00000000  0.50000000  0.11673000  1.0
  Fe  Fe6  1  0.50000000  0.00000000  0.88556000  1.0
  Fe  Fe7  1  0.00000000  0.50000000  0.96099000  1.0
  Co  Co8  1  0.00000000  0.75000000  0.03891000  1.0
  Co  Co9  1  0.00000000  0.25000000  0.03891000  1.0
  Co  Co10  1  0.50000000  0.25000000  0.11673000  1.0
  Co  Co11  1  0.50000000  0.75000000  0.11673000  1.0
  Co  Co12  1  0.00000000  0.74578500  0.88579000  1.0
  Co  Co13  1  0.00000000  0.25421500  0.88579000  1.0
  Co  Co14  1  0.50000000  0.25244000  0.96018000  1.0
  Co  Co15  1  0.50000000  0.74756000  0.96018000  1.0
