# generated using pymatgen
data_Li8Mg8Sb8Pd8C
_symmetry_space_group_name_H-M   'P 1'
_cell_length_a   9.29346000
_cell_length_b   6.57147000
_cell_length_c   26.97010000
_cell_angle_alpha   90.00000000
_cell_angle_beta   90.00000000
_cell_angle_gamma   90.00000000
_symmetry_Int_Tables_number   1
_chemical_formula_structural   Li8Mg8Sb8Pd8C
_chemical_formula_sum   'Li8 Mg8 Sb8 Pd8 C1'
_cell_volume   1647.10968319
_cell_formula_units_Z   1
loop_
 _symmetry_equiv_pos_site_id
 _symmetry_equiv_pos_as_xyz
  1  'x, y, z'
loop_
 _atom_site_type_symbol
 _atom_site_label
 _atom_site_symmetry_multiplicity
 _atom_site_fract_x
 _atom_site_fract_y
 _atom_site_fract_z
 _atom_site_occupancy
  Li  Li0  1  0.00000000  0.00000000  0.12922000  1.0
  Li  Li1  1  0.50000000  0.00000000  0.12922000  1.0
  Li  Li2  1  0.75000000  0.50000000  0.04307000  1.0
  Li  Li3  1  0.25000000  0.50000000  0.04307000  1.0
  Li  Li4  1  0.50000000  0.00486000  0.96030000  1.0
  Li  Li5  1  0.00000000  0.98164000  0.94321000  1.0
  Li  Li6  1  0.26355000  0.55001000  0.84990000  1.0
  Li  Li7  1  0.73645000  0.55001000  0.84990000  1.0
  Mg  Mg8  1  0.00000000  0.25000000  0.04307000  1.0
  Mg  Mg9  1  0.50000000  0.25000000  0.04307000  1.0
  Mg  Mg10  1  0.25000000  0.75000000  0.12922000  1.0
  Mg  Mg11  1  0.75000000  0.75000000  0.12922000  1.0
  Mg  Mg12  1  0.50000000  0.22829000  0.87044000  1.0
  Mg  Mg13  1  0.00000000  0.32142000  0.86929000  1.0
  Mg  Mg14  1  0.74599000  0.73095000  0.95572000  1.0
  Mg  Mg15  1  0.25401000  0.73095000  0.95572000  1.0
  Sb  Sb16  1  0.00000000  0.75000000  0.04307000  1.0
  Sb  Sb17  1  0.50000000  0.75000000  0.04307000  1.0
  Sb  Sb18  1  0.25000000  0.25000000  0.12922000  1.0
  Sb  Sb19  1  0.75000000  0.25000000  0.12922000  1.0
  Sb  Sb20  1  0.50000000  0.76743000  0.87114000  1.0
  Sb  Sb21  1  0.00000000  0.74640000  0.81120000  1.0
  Sb  Sb22  1  0.75295000  0.25314000  0.95042000  1.0
  Sb  Sb23  1  0.24705000  0.25314000  0.95042000  1.0
  Pd  Pd24  1  0.25000000  0.00000000  0.04307000  1.0
  Pd  Pd25  1  0.75000000  0.00000000  0.04307000  1.0
  Pd  Pd26  1  0.50000000  0.50000000  0.12922000  1.0
  Pd  Pd27  1  0.00000000  0.50000000  0.12922000  1.0
  Pd  Pd28  1  0.77723000  0.95752000  0.87360000  1.0
  Pd  Pd29  1  0.22277000  0.95752000  0.87360000  1.0
  Pd  Pd30  1  0.00000000  0.48701000  0.96327000  1.0
  Pd  Pd31  1  0.50000000  0.48576000  0.96158000  1.0
  C  C32  1  0.00000000  0.99823000  0.86058000  1.0
