# generated using pymatgen
data_Hf16C
_symmetry_space_group_name_H-M   'P 1'
_cell_length_a   7.06962000
_cell_length_b   7.06962000
_cell_length_c   25.30220000
_cell_angle_alpha   90.00000000
_cell_angle_beta   90.00000000
_cell_angle_gamma   90.00000000
_symmetry_Int_Tables_number   1
_chemical_formula_structural   Hf16C
_chemical_formula_sum   'Hf16 C1'
_cell_volume   1264.59198665
_cell_formula_units_Z   1
loop_
 _symmetry_equiv_pos_site_id
 _symmetry_equiv_pos_as_xyz
  1  'x, y, z'
loop_
 _atom_site_type_symbol
 _atom_site_label
 _atom_site_symmetry_multiplicity
 _atom_site_fract_x
 _atom_site_fract_y
 _atom_site_fract_z
 _atom_site_occupancy
  Hf  Hf0  1  0.00000000  0.00000000  0.89522000  1.0
  Hf  Hf1  1  0.25000000  0.25000000  0.96507000  1.0
  Hf  Hf2  1  0.00000000  0.00000000  0.03493000  1.0
  Hf  Hf3  1  0.25000000  0.25000000  0.10478000  1.0
  Hf  Hf4  1  0.00000000  0.50000000  0.89522000  1.0
  Hf  Hf5  1  0.25000000  0.75000000  0.96507000  1.0
  Hf  Hf6  1  0.00000000  0.50000000  0.03493000  1.0
  Hf  Hf7  1  0.25000000  0.75000000  0.10478000  1.0
  Hf  Hf8  1  0.50000000  0.00000000  0.89522000  1.0
  Hf  Hf9  1  0.75000000  0.25000000  0.96507000  1.0
  Hf  Hf10  1  0.50000000  0.00000000  0.03493000  1.0
  Hf  Hf11  1  0.75000000  0.25000000  0.10478000  1.0
  Hf  Hf12  1  0.50000000  0.50000000  0.89522000  1.0
  Hf  Hf13  1  0.75000000  0.75000000  0.96507000  1.0
  Hf  Hf14  1  0.50000000  0.50000000  0.03493000  1.0
  Hf  Hf15  1  0.75000000  0.75000000  0.10478000  1.0
  C  C16  1  0.00000000  0.00000000  0.13640000  1.0
