# generated using pymatgen
data_Li2GaPd
_symmetry_space_group_name_H-M   'P 1'
_cell_length_a   6.14873000
_cell_length_b   4.34780500
_cell_length_c   26.52170000
_cell_angle_alpha   90.00000000
_cell_angle_beta   90.00000000
_cell_angle_gamma   90.00000000
_symmetry_Int_Tables_number   1
_chemical_formula_structural   Li2GaPd
_chemical_formula_sum   'Li8 Ga4 Pd4'
_cell_volume   709.01731099
_cell_formula_units_Z   4
loop_
 _symmetry_equiv_pos_site_id
 _symmetry_equiv_pos_as_xyz
  1  'x, y, z'
loop_
 _atom_site_type_symbol
 _atom_site_label
 _atom_site_symmetry_multiplicity
 _atom_site_fract_x
 _atom_site_fract_y
 _atom_site_fract_z
 _atom_site_occupancy
  Li  Li0  1  0.00000000  0.50000000  0.95902000  1.0
  Li  Li1  1  0.50000000  0.00000000  0.87705000  1.0
  Li  Li2  1  0.75000000  0.50000000  0.87705000  1.0
  Li  Li3  1  0.25000000  0.00000000  0.95902000  1.0
  Li  Li4  1  0.98861000  0.50000000  0.12568000  1.0
  Li  Li5  1  0.49424000  0.00000000  0.03908000  1.0
  Li  Li6  1  0.75425000  0.50000000  0.03749000  1.0
  Li  Li7  1  0.27127000  0.00000000  0.12710000  1.0
  Ga  Ga8  1  0.75000000  0.00000000  0.95902000  1.0
  Ga  Ga9  1  0.25000000  0.50000000  0.87705000  1.0
  Ga  Ga10  1  0.73566000  0.00000000  0.12317000  1.0
  Ga  Ga11  1  0.24423000  0.50000000  0.04165000  1.0
  Pd  Pd12  1  0.00000000  0.00000000  0.87705000  1.0
  Pd  Pd13  1  0.50000000  0.50000000  0.95902000  1.0
  Pd  Pd14  1  0.00080000  0.00000000  0.04366000  1.0
  Pd  Pd15  1  0.51776000  0.50000000  0.11456000  1.0
