# generated using pymatgen
data_Li2GaPd
_symmetry_space_group_name_H-M   Pm
_cell_length_a   6.14873000
_cell_length_b   4.34780500
_cell_length_c   26.52170000
_cell_angle_alpha   90.00000000
_cell_angle_beta   90.00000000
_cell_angle_gamma   90.00000000
_symmetry_Int_Tables_number   6
_chemical_formula_structural   Li2GaPd
_chemical_formula_sum   'Li8 Ga4 Pd4'
_cell_volume   709.01731099
_cell_formula_units_Z   4
loop_
 _symmetry_equiv_pos_site_id
 _symmetry_equiv_pos_as_xyz
  1  'x, y, z'
  2  'x, -y, z'
loop_
 _atom_site_type_symbol
 _atom_site_label
 _atom_site_symmetry_multiplicity
 _atom_site_fract_x
 _atom_site_fract_y
 _atom_site_fract_z
 _atom_site_occupancy
  Li  Li0  1  0.00000000  0.50000000  0.04098000  1.0
  Li  Li1  1  0.25000000  0.00000000  0.04098000  1.0
  Li  Li2  1  0.27127000  0.00000000  0.87290000  1.0
  Li  Li3  1  0.49424000  0.00000000  0.96092000  1.0
  Li  Li4  1  0.50000000  0.00000000  0.12295000  1.0
  Li  Li5  1  0.75000000  0.50000000  0.12295000  1.0
  Li  Li6  1  0.75425000  0.50000000  0.96251000  1.0
  Li  Li7  1  0.98861000  0.50000000  0.87432000  1.0
  Ga  Ga8  1  0.24423000  0.50000000  0.95835000  1.0
  Ga  Ga9  1  0.25000000  0.50000000  0.12295000  1.0
  Ga  Ga10  1  0.73566000  0.00000000  0.87683000  1.0
  Ga  Ga11  1  0.75000000  0.00000000  0.04098000  1.0
  Pd  Pd12  1  0.00000000  0.00000000  0.12295000  1.0
  Pd  Pd13  1  0.00080000  0.00000000  0.95634000  1.0
  Pd  Pd14  1  0.50000000  0.50000000  0.04098000  1.0
  Pd  Pd15  1  0.51776000  0.50000000  0.88544000  1.0
