# generated using pymatgen
data_HfCo2Sn
_symmetry_space_group_name_H-M   P4mm
_cell_length_a   4.43051896
_cell_length_b   4.43051896
_cell_length_c   24.69930000
_cell_angle_alpha   90.00000000
_cell_angle_beta   90.00000000
_cell_angle_gamma   90.00000000
_symmetry_Int_Tables_number   99
_chemical_formula_structural   HfCo2Sn
_chemical_formula_sum   'Hf2 Co4 Sn2'
_cell_volume   484.83486600
_cell_formula_units_Z   2
loop_
 _symmetry_equiv_pos_site_id
 _symmetry_equiv_pos_as_xyz
  1  'x, y, z'
  2  '-y, x, z'
  3  '-x, -y, z'
  4  'y, -x, z'
  5  '-x, y, z'
  6  'y, x, z'
  7  'x, -y, z'
  8  '-y, -x, z'
loop_
 _atom_site_type_symbol
 _atom_site_label
 _atom_site_symmetry_multiplicity
 _atom_site_fract_x
 _atom_site_fract_y
 _atom_site_fract_z
 _atom_site_occupancy
  Hf  Hf0  1  0.00000000  0.00000000  0.09513000  1.0
  Hf  Hf1  1  0.50000000  0.50000000  0.96829000  1.0
  Co  Co2  2  0.00000000  0.50000000  0.03171000  1.0
  Co  Co3  2  0.00000000  0.50000000  0.90487000  1.0
  Sn  Sn4  1  0.00000000  0.00000000  0.96829000  1.0
  Sn  Sn5  1  0.50000000  0.50000000  0.09513000  1.0
