# generated using pymatgen
data_Hf8Ni16Sn8C
_symmetry_space_group_name_H-M   Pmm2
_cell_length_a   6.28964000
_cell_length_b   8.89490000
_cell_length_c   26.67120000
_cell_angle_alpha   90.00000000
_cell_angle_beta   90.00000000
_cell_angle_gamma   90.00000000
_symmetry_Int_Tables_number   25
_chemical_formula_structural   Hf8Ni16Sn8C
_chemical_formula_sum   'Hf8 Ni16 Sn8 C1'
_cell_volume   1492.13945622
_cell_formula_units_Z   1
loop_
 _symmetry_equiv_pos_site_id
 _symmetry_equiv_pos_as_xyz
  1  'x, y, z'
  2  '-x, -y, z'
  3  '-x, y, z'
  4  'x, -y, z'
loop_
 _atom_site_type_symbol
 _atom_site_label
 _atom_site_symmetry_multiplicity
 _atom_site_fract_x
 _atom_site_fract_y
 _atom_site_fract_z
 _atom_site_occupancy
  Hf  Hf0  2  0.50000000  0.24747000  0.12389000  1.0
  Hf  Hf1  2  0.50000000  0.24999000  0.95831000  1.0
  Hf  Hf2  1  0.00000000  0.00000000  0.04237000  1.0
  Hf  Hf3  1  0.00000000  0.00000000  0.87494000  1.0
  Hf  Hf4  1  0.00000000  0.50000000  0.04630000  1.0
  Hf  Hf5  1  0.00000000  0.50000000  0.87494000  1.0
  Ni  Ni6  4  0.24085000  0.24636000  0.04416000  1.0
  Ni  Ni7  4  0.25000000  0.25001000  0.87494000  1.0
  Ni  Ni8  2  0.25000000  0.50000000  0.95831000  1.0
  Ni  Ni9  2  0.25000000  0.00000000  0.95831000  1.0
  Ni  Ni10  2  0.27250000  0.00000000  0.12006000  1.0
  Ni  Ni11  2  0.28797000  0.50000000  0.12698000  1.0
  Sn  Sn12  2  0.00000000  0.23030000  0.13997000  1.0
  Sn  Sn13  2  0.00000000  0.25001000  0.95831000  1.0
  Sn  Sn14  1  0.50000000  0.00000000  0.03837000  1.0
  Sn  Sn15  1  0.50000000  0.00000000  0.87494000  1.0
  Sn  Sn16  1  0.50000000  0.50000000  0.04046000  1.0
  Sn  Sn17  1  0.50000000  0.50000000  0.87494000  1.0
  C  C18  1  0.00000000  0.50000000  0.13160000  1.0
