# generated using pymatgen
data_CaNi
_symmetry_space_group_name_H-M   'P 1'
_cell_length_a   6.93038000
_cell_length_b   9.80104000
_cell_length_c   27.35080000
_cell_angle_alpha   90.00000000
_cell_angle_beta   90.00000000
_cell_angle_gamma   90.00000000
_symmetry_Int_Tables_number   1
_chemical_formula_structural   CaNi
_chemical_formula_sum   'Ca16 Ni16'
_cell_volume   1857.80121907
_cell_formula_units_Z   16
loop_
 _symmetry_equiv_pos_site_id
 _symmetry_equiv_pos_as_xyz
  1  'x, y, z'
loop_
 _atom_site_type_symbol
 _atom_site_label
 _atom_site_symmetry_multiplicity
 _atom_site_fract_x
 _atom_site_fract_y
 _atom_site_fract_z
 _atom_site_occupancy
  Ca  Ca0  1  0.00000000  0.00000000  0.86562000  1.0
  Ca  Ca1  1  1.00000000  0.25000000  0.95521000  1.0
  Ca  Ca2  1  0.99987000  0.00004000  0.04257000  1.0
  Ca  Ca3  1  0.99998000  0.24989000  0.13975000  1.0
  Ca  Ca4  1  1.00000000  0.50000000  0.86562000  1.0
  Ca  Ca5  1  1.00000000  0.75000000  0.95521000  1.0
  Ca  Ca6  1  0.00002000  0.49994000  0.04266000  1.0
  Ca  Ca7  1  0.99996000  0.74999000  0.13977000  1.0
  Ca  Ca8  1  0.50000000  0.00000000  0.86562000  1.0
  Ca  Ca9  1  0.50000000  0.25000000  0.95521000  1.0
  Ca  Ca10  1  0.50005000  0.00001000  0.04258000  1.0
  Ca  Ca11  1  0.49994000  0.25004000  0.13976000  1.0
  Ca  Ca12  1  0.50000000  0.50000000  0.86562000  1.0
  Ca  Ca13  1  0.50000000  0.75000000  0.95521000  1.0
  Ca  Ca14  1  0.50004000  0.50000000  0.04271000  1.0
  Ca  Ca15  1  0.49995000  0.74990000  0.13977000  1.0
  Ni  Ni16  1  0.25000000  0.25000000  0.86562000  1.0
  Ni  Ni17  1  0.25000000  0.00000000  0.95521000  1.0
  Ni  Ni18  1  0.25015000  0.24998000  0.05537000  1.0
  Ni  Ni19  1  0.24984000  0.99988000  0.12206000  1.0
  Ni  Ni20  1  0.25000000  0.75000000  0.86562000  1.0
  Ni  Ni21  1  0.25000000  0.50000000  0.95521000  1.0
  Ni  Ni22  1  0.24999000  0.75007000  0.05544000  1.0
  Ni  Ni23  1  0.24959000  0.50000000  0.12228000  1.0
  Ni  Ni24  1  0.75000000  0.25000000  0.86562000  1.0
  Ni  Ni25  1  0.75000000  0.00000000  0.95521000  1.0
  Ni  Ni26  1  0.74972000  0.24997000  0.05541000  1.0
  Ni  Ni27  1  0.74990000  0.99990000  0.12216000  1.0
  Ni  Ni28  1  0.75000000  0.75000000  0.86562000  1.0
  Ni  Ni29  1  0.75000000  0.50000000  0.95521000  1.0
  Ni  Ni30  1  0.75001000  0.75003000  0.05545000  1.0
  Ni  Ni31  1  0.75050000  0.50004000  0.12227000  1.0
