# generated using pymatgen
data_Li8Y8Ge8Pb8C
_symmetry_space_group_name_H-M   Pmm2
_cell_length_a   8.55406000
_cell_length_b   8.65500000
_cell_length_c   27.39600000
_cell_angle_alpha   90.00000000
_cell_angle_beta   90.00000000
_cell_angle_gamma   90.00000000
_symmetry_Int_Tables_number   25
_chemical_formula_structural   Li8Y8Ge8Pb8C
_chemical_formula_sum   'Li8 Y8 Ge8 Pb8 C1'
_cell_volume   2028.27352526
_cell_formula_units_Z   1
loop_
 _symmetry_equiv_pos_site_id
 _symmetry_equiv_pos_as_xyz
  1  'x, y, z'
  2  '-x, -y, z'
  3  '-x, y, z'
  4  'x, -y, z'
loop_
 _atom_site_type_symbol
 _atom_site_label
 _atom_site_symmetry_multiplicity
 _atom_site_fract_x
 _atom_site_fract_y
 _atom_site_fract_z
 _atom_site_occupancy
  Li  Li0  1  0.00000000  0.00000000  0.06048000  1.0
  Li  Li1  1  0.00000000  0.00000000  0.86502000  1.0
  Li  Li2  1  0.00000000  0.50000000  0.04411000  1.0
  Li  Li3  1  0.00000000  0.50000000  0.86502000  1.0
  Li  Li4  1  0.50000000  0.00000000  0.03927000  1.0
  Li  Li5  1  0.50000000  0.00000000  0.86502000  1.0
  Li  Li6  1  0.50000000  0.50000000  0.04597000  1.0
  Li  Li7  1  0.50000000  0.50000000  0.86502000  1.0
  Y  Y8  2  0.00000000  0.25000000  0.95501000  1.0
  Y  Y9  2  0.00000000  0.27366000  0.13852000  1.0
  Y  Y10  2  0.50000000  0.25000000  0.95501000  1.0
  Y  Y11  2  0.50000000  0.25574000  0.13195000  1.0
  Ge  Ge12  2  0.22992000  0.00000000  0.14326000  1.0
  Ge  Ge13  2  0.25000000  0.00000000  0.95501000  1.0
  Ge  Ge14  2  0.25000000  0.50000000  0.95501000  1.0
  Ge  Ge15  2  0.26002000  0.50000000  0.13138000  1.0
  Pb  Pb16  4  0.24887000  0.24641000  0.04613000  1.0
  Pb  Pb17  4  0.25000000  0.25000000  0.86502000  1.0
  C  C18  1  0.00000000  0.00000000  0.14619000  1.0
