data_image0
_chemical_formula_structural       Zr8In8Ni16C
_chemical_formula_sum              "Zr8 In8 Ni16 C1"
_cell_length_a       6.34973
_cell_length_b       8.97987
_cell_length_c       26.7349
_cell_angle_alpha    90
_cell_angle_beta     90
_cell_angle_gamma    90

_space_group_name_H-M_alt    "P 1"
_space_group_IT_number       1

loop_
  _space_group_symop_operation_xyz
  'x, y, z'

loop_
  _atom_site_type_symbol
  _atom_site_label
  _atom_site_symmetry_multiplicity
  _atom_site_fract_x
  _atom_site_fract_y
  _atom_site_fract_z
  _atom_site_occupancy
  Zr  Zr1       1.0  0.00000  0.00000  0.87404  1.0000
  Zr  Zr2       1.0  0.50000  0.25000  0.95801  1.0000
  Zr  Zr3       1.0  0.50000  0.75000  0.95801  1.0000
  Zr  Zr4       1.0  0.00000  0.50000  0.87404  1.0000
  Zr  Zr5       1.0  0.00000  0.50000  0.04199  1.0000
  Zr  Zr6       1.0  0.50000  0.75000  0.12596  1.0000
  Zr  Zr7       1.0  0.50000  0.25000  0.12596  1.0000
  Zr  Zr8       1.0  0.00000  0.00000  0.04199  1.0000
  In  In1       1.0  0.00000  0.75000  0.95801  1.0000
  In  In2       1.0  0.50000  0.00000  0.87404  1.0000
  In  In3       1.0  0.00000  0.25000  0.95801  1.0000
  In  In4       1.0  0.50000  0.50000  0.87404  1.0000
  In  In5       1.0  0.00000  0.25000  0.12596  1.0000
  In  In6       1.0  0.50000  0.50000  0.04199  1.0000
  In  In7       1.0  0.00000  0.75000  0.12596  1.0000
  In  In8       1.0  0.50000  0.00000  0.04199  1.0000
  Ni  Ni1       1.0  0.25000  0.00000  0.95801  1.0000
  Ni  Ni2       1.0  0.75000  0.50000  0.95801  1.0000
  Ni  Ni3       1.0  0.75000  0.00000  0.95801  1.0000
  Ni  Ni4       1.0  0.25000  0.50000  0.95801  1.0000
  Ni  Ni5       1.0  0.75000  0.75000  0.87404  1.0000
  Ni  Ni6       1.0  0.25000  0.25000  0.87404  1.0000
  Ni  Ni7       1.0  0.25000  0.75000  0.87404  1.0000
  Ni  Ni8       1.0  0.75000  0.25000  0.87404  1.0000
  Ni  Ni9       1.0  0.25000  0.50000  0.12596  1.0000
  Ni  Ni10      1.0  0.75000  0.00000  0.12596  1.0000
  Ni  Ni11      1.0  0.75000  0.50000  0.12596  1.0000
  Ni  Ni12      1.0  0.25000  0.00000  0.12596  1.0000
  Ni  Ni13      1.0  0.75000  0.25000  0.04199  1.0000
  Ni  Ni14      1.0  0.25000  0.75000  0.04199  1.0000
  Ni  Ni15      1.0  0.25000  0.25000  0.04199  1.0000
  Ni  Ni16      1.0  0.75000  0.75000  0.04199  1.0000
  C   C1        1.0  0.50000  0.00000  0.15588  1.0000
